
---------- Begin Simulation Statistics ----------
final_tick                               392024781000                       # Number of ticks from beginning of simulation (restored from checkpoints and never reset)
host_inst_rate                                 320159                       # Simulator instruction rate (inst/s)
host_mem_usage                                 748620                       # Number of bytes of host memory used
host_op_rate                                   320170                       # Simulator op (including micro ops) rate (op/s)
host_seconds                                   312.35                       # Real time elapsed on the host
host_tick_rate                             1255100859                       # Simulator tick rate (ticks/s)
sim_freq                                 1000000000000                       # Frequency of simulated ticks
sim_insts                                   100000000                       # Number of instructions simulated
sim_ops                                     100003445                       # Number of ops (including micro ops) simulated
sim_seconds                                  0.392025                       # Number of seconds simulated
sim_ticks                                392024781000                       # Number of ticks simulated
system.cpu.branchPred.BTBCorrect                    0                       # Number of correct BTB predictions (this stat may not work properly.
system.cpu.branchPred.BTBHitPct             99.568173                       # BTB Hit Percentage
system.cpu.branchPred.BTBHits                  596726                       # Number of BTB hits
system.cpu.branchPred.BTBLookups               599314                       # Number of BTB lookups
system.cpu.branchPred.RASInCorrect                  7                       # Number of incorrect RAS predictions.
system.cpu.branchPred.condIncorrect               843                       # Number of conditional branches incorrect
system.cpu.branchPred.condPredicted            599642                       # Number of conditional branches predicted
system.cpu.branchPred.indirectHits                158                       # Number of indirect target hits.
system.cpu.branchPred.indirectLookups             347                       # Number of indirect predictor lookups.
system.cpu.branchPred.indirectMisses              189                       # Number of indirect misses.
system.cpu.branchPred.lookups                  601537                       # Number of BP lookups
system.cpu.branchPred.usedRAS                     533                       # Number of times the RAS was used to get a target.
system.cpu.branchPredindirectMispredicted          114                       # Number of mispredicted indirect branches.
system.cpu.committedInsts                   100000000                       # Number of instructions committed
system.cpu.committedOps                     100003445                       # Number of ops (including micro ops) committed
system.cpu.cpi                               3.920248                       # CPI: cycles per instruction
system.cpu.discardedOps                          2418                       # Number of ops (including micro ops) which were discarded before commit
system.cpu.dtb.accesses                             0                       # DTB accesses
system.cpu.dtb.align_faults                         0                       # Number of TLB faults due to alignment restrictions
system.cpu.dtb.domain_faults                        0                       # Number of TLB faults due to domain restrictions
system.cpu.dtb.flush_entries                        0                       # Number of entries that have been flushed from TLB
system.cpu.dtb.flush_tlb                            0                       # Number of times complete TLB was flushed
system.cpu.dtb.flush_tlb_asid                       0                       # Number of times TLB was flushed by ASID
system.cpu.dtb.flush_tlb_mva                        0                       # Number of times TLB was flushed by MVA
system.cpu.dtb.flush_tlb_mva_asid                   0                       # Number of times TLB was flushed by MVA & ASID
system.cpu.dtb.hits                                 0                       # DTB hits
system.cpu.dtb.inst_accesses                        0                       # ITB inst accesses
system.cpu.dtb.inst_hits                            0                       # ITB inst hits
system.cpu.dtb.inst_misses                          0                       # ITB inst misses
system.cpu.dtb.misses                               0                       # DTB misses
system.cpu.dtb.perms_faults                         0                       # Number of TLB faults due to permissions restrictions
system.cpu.dtb.prefetch_faults                      0                       # Number of TLB faults due to prefetch
system.cpu.dtb.read_accesses                        0                       # DTB read accesses
system.cpu.dtb.read_hits                            0                       # DTB read hits
system.cpu.dtb.read_misses                          0                       # DTB read misses
system.cpu.dtb.stage2_mmu.stage2_tlb.accesses            0                       # DTB accesses
system.cpu.dtb.stage2_mmu.stage2_tlb.align_faults            0                       # Number of TLB faults due to alignment restrictions
system.cpu.dtb.stage2_mmu.stage2_tlb.domain_faults            0                       # Number of TLB faults due to domain restrictions
system.cpu.dtb.stage2_mmu.stage2_tlb.flush_entries            0                       # Number of entries that have been flushed from TLB
system.cpu.dtb.stage2_mmu.stage2_tlb.flush_tlb            0                       # Number of times complete TLB was flushed
system.cpu.dtb.stage2_mmu.stage2_tlb.flush_tlb_asid            0                       # Number of times TLB was flushed by ASID
system.cpu.dtb.stage2_mmu.stage2_tlb.flush_tlb_mva            0                       # Number of times TLB was flushed by MVA
system.cpu.dtb.stage2_mmu.stage2_tlb.flush_tlb_mva_asid            0                       # Number of times TLB was flushed by MVA & ASID
system.cpu.dtb.stage2_mmu.stage2_tlb.hits            0                       # DTB hits
system.cpu.dtb.stage2_mmu.stage2_tlb.inst_accesses            0                       # ITB inst accesses
system.cpu.dtb.stage2_mmu.stage2_tlb.inst_hits            0                       # ITB inst hits
system.cpu.dtb.stage2_mmu.stage2_tlb.inst_misses            0                       # ITB inst misses
system.cpu.dtb.stage2_mmu.stage2_tlb.misses            0                       # DTB misses
system.cpu.dtb.stage2_mmu.stage2_tlb.perms_faults            0                       # Number of TLB faults due to permissions restrictions
system.cpu.dtb.stage2_mmu.stage2_tlb.prefetch_faults            0                       # Number of TLB faults due to prefetch
system.cpu.dtb.stage2_mmu.stage2_tlb.read_accesses            0                       # DTB read accesses
system.cpu.dtb.stage2_mmu.stage2_tlb.read_hits            0                       # DTB read hits
system.cpu.dtb.stage2_mmu.stage2_tlb.read_misses            0                       # DTB read misses
system.cpu.dtb.stage2_mmu.stage2_tlb.walker.walkRequestOrigin_Requested::Data            0                       # Table walker requests started/completed, data/inst
system.cpu.dtb.stage2_mmu.stage2_tlb.walker.walkRequestOrigin_Requested::Inst            0                       # Table walker requests started/completed, data/inst
system.cpu.dtb.stage2_mmu.stage2_tlb.walker.walkRequestOrigin_Requested::total            0                       # Table walker requests started/completed, data/inst
system.cpu.dtb.stage2_mmu.stage2_tlb.walker.walkRequestOrigin_Completed::Data            0                       # Table walker requests started/completed, data/inst
system.cpu.dtb.stage2_mmu.stage2_tlb.walker.walkRequestOrigin_Completed::Inst            0                       # Table walker requests started/completed, data/inst
system.cpu.dtb.stage2_mmu.stage2_tlb.walker.walkRequestOrigin_Completed::total            0                       # Table walker requests started/completed, data/inst
system.cpu.dtb.stage2_mmu.stage2_tlb.walker.walkRequestOrigin::total            0                       # Table walker requests started/completed, data/inst
system.cpu.dtb.stage2_mmu.stage2_tlb.walker.walks            0                       # Table walker walks requested
system.cpu.dtb.stage2_mmu.stage2_tlb.write_accesses            0                       # DTB write accesses
system.cpu.dtb.stage2_mmu.stage2_tlb.write_hits            0                       # DTB write hits
system.cpu.dtb.stage2_mmu.stage2_tlb.write_misses            0                       # DTB write misses
system.cpu.dtb.walker.walkRequestOrigin_Requested::Data            0                       # Table walker requests started/completed, data/inst
system.cpu.dtb.walker.walkRequestOrigin_Requested::Inst            0                       # Table walker requests started/completed, data/inst
system.cpu.dtb.walker.walkRequestOrigin_Requested::total            0                       # Table walker requests started/completed, data/inst
system.cpu.dtb.walker.walkRequestOrigin_Completed::Data            0                       # Table walker requests started/completed, data/inst
system.cpu.dtb.walker.walkRequestOrigin_Completed::Inst            0                       # Table walker requests started/completed, data/inst
system.cpu.dtb.walker.walkRequestOrigin_Completed::total            0                       # Table walker requests started/completed, data/inst
system.cpu.dtb.walker.walkRequestOrigin::total            0                       # Table walker requests started/completed, data/inst
system.cpu.dtb.walker.walks                         0                       # Table walker walks requested
system.cpu.dtb.write_accesses                       0                       # DTB write accesses
system.cpu.dtb.write_hits                           0                       # DTB write hits
system.cpu.dtb.write_misses                         0                       # DTB write misses
system.cpu.fetch2.amo_instructions                  0                       # Number of memory atomic instructions successfully decoded
system.cpu.fetch2.fp_instructions                   0                       # Number of floating point instructions successfully decoded
system.cpu.fetch2.int_instructions           49410567                       # Number of integer instructions successfully decoded
system.cpu.fetch2.load_instructions          36900774                       # Number of memory load instructions successfully decoded
system.cpu.fetch2.store_instructions         13094171                       # Number of memory store instructions successfully decoded
system.cpu.fetch2.vec_instructions                  0                       # Number of SIMD instructions successfully decoded
system.cpu.idleCycles                       269990368                       # Total number of cycles that the object has spent stopped
system.cpu.ipc                               0.255086                       # IPC: instructions per cycle
system.cpu.itb.accesses                             0                       # DTB accesses
system.cpu.itb.align_faults                         0                       # Number of TLB faults due to alignment restrictions
system.cpu.itb.domain_faults                        0                       # Number of TLB faults due to domain restrictions
system.cpu.itb.flush_entries                        0                       # Number of entries that have been flushed from TLB
system.cpu.itb.flush_tlb                            0                       # Number of times complete TLB was flushed
system.cpu.itb.flush_tlb_asid                       0                       # Number of times TLB was flushed by ASID
system.cpu.itb.flush_tlb_mva                        0                       # Number of times TLB was flushed by MVA
system.cpu.itb.flush_tlb_mva_asid                   0                       # Number of times TLB was flushed by MVA & ASID
system.cpu.itb.hits                                 0                       # DTB hits
system.cpu.itb.inst_accesses                        0                       # ITB inst accesses
system.cpu.itb.inst_hits                            0                       # ITB inst hits
system.cpu.itb.inst_misses                          0                       # ITB inst misses
system.cpu.itb.misses                               0                       # DTB misses
system.cpu.itb.perms_faults                         0                       # Number of TLB faults due to permissions restrictions
system.cpu.itb.prefetch_faults                      0                       # Number of TLB faults due to prefetch
system.cpu.itb.read_accesses                        0                       # DTB read accesses
system.cpu.itb.read_hits                            0                       # DTB read hits
system.cpu.itb.read_misses                          0                       # DTB read misses
system.cpu.itb.stage2_mmu.stage2_tlb.accesses            0                       # DTB accesses
system.cpu.itb.stage2_mmu.stage2_tlb.align_faults            0                       # Number of TLB faults due to alignment restrictions
system.cpu.itb.stage2_mmu.stage2_tlb.domain_faults            0                       # Number of TLB faults due to domain restrictions
system.cpu.itb.stage2_mmu.stage2_tlb.flush_entries            0                       # Number of entries that have been flushed from TLB
system.cpu.itb.stage2_mmu.stage2_tlb.flush_tlb            0                       # Number of times complete TLB was flushed
system.cpu.itb.stage2_mmu.stage2_tlb.flush_tlb_asid            0                       # Number of times TLB was flushed by ASID
system.cpu.itb.stage2_mmu.stage2_tlb.flush_tlb_mva            0                       # Number of times TLB was flushed by MVA
system.cpu.itb.stage2_mmu.stage2_tlb.flush_tlb_mva_asid            0                       # Number of times TLB was flushed by MVA & ASID
system.cpu.itb.stage2_mmu.stage2_tlb.hits            0                       # DTB hits
system.cpu.itb.stage2_mmu.stage2_tlb.inst_accesses            0                       # ITB inst accesses
system.cpu.itb.stage2_mmu.stage2_tlb.inst_hits            0                       # ITB inst hits
system.cpu.itb.stage2_mmu.stage2_tlb.inst_misses            0                       # ITB inst misses
system.cpu.itb.stage2_mmu.stage2_tlb.misses            0                       # DTB misses
system.cpu.itb.stage2_mmu.stage2_tlb.perms_faults            0                       # Number of TLB faults due to permissions restrictions
system.cpu.itb.stage2_mmu.stage2_tlb.prefetch_faults            0                       # Number of TLB faults due to prefetch
system.cpu.itb.stage2_mmu.stage2_tlb.read_accesses            0                       # DTB read accesses
system.cpu.itb.stage2_mmu.stage2_tlb.read_hits            0                       # DTB read hits
system.cpu.itb.stage2_mmu.stage2_tlb.read_misses            0                       # DTB read misses
system.cpu.itb.stage2_mmu.stage2_tlb.walker.walkRequestOrigin_Requested::Data            0                       # Table walker requests started/completed, data/inst
system.cpu.itb.stage2_mmu.stage2_tlb.walker.walkRequestOrigin_Requested::Inst            0                       # Table walker requests started/completed, data/inst
system.cpu.itb.stage2_mmu.stage2_tlb.walker.walkRequestOrigin_Requested::total            0                       # Table walker requests started/completed, data/inst
system.cpu.itb.stage2_mmu.stage2_tlb.walker.walkRequestOrigin_Completed::Data            0                       # Table walker requests started/completed, data/inst
system.cpu.itb.stage2_mmu.stage2_tlb.walker.walkRequestOrigin_Completed::Inst            0                       # Table walker requests started/completed, data/inst
system.cpu.itb.stage2_mmu.stage2_tlb.walker.walkRequestOrigin_Completed::total            0                       # Table walker requests started/completed, data/inst
system.cpu.itb.stage2_mmu.stage2_tlb.walker.walkRequestOrigin::total            0                       # Table walker requests started/completed, data/inst
system.cpu.itb.stage2_mmu.stage2_tlb.walker.walks            0                       # Table walker walks requested
system.cpu.itb.stage2_mmu.stage2_tlb.write_accesses            0                       # DTB write accesses
system.cpu.itb.stage2_mmu.stage2_tlb.write_hits            0                       # DTB write hits
system.cpu.itb.stage2_mmu.stage2_tlb.write_misses            0                       # DTB write misses
system.cpu.itb.walker.walkRequestOrigin_Requested::Data            0                       # Table walker requests started/completed, data/inst
system.cpu.itb.walker.walkRequestOrigin_Requested::Inst            0                       # Table walker requests started/completed, data/inst
system.cpu.itb.walker.walkRequestOrigin_Requested::total            0                       # Table walker requests started/completed, data/inst
system.cpu.itb.walker.walkRequestOrigin_Completed::Data            0                       # Table walker requests started/completed, data/inst
system.cpu.itb.walker.walkRequestOrigin_Completed::Inst            0                       # Table walker requests started/completed, data/inst
system.cpu.itb.walker.walkRequestOrigin_Completed::total            0                       # Table walker requests started/completed, data/inst
system.cpu.itb.walker.walkRequestOrigin::total            0                       # Table walker requests started/completed, data/inst
system.cpu.itb.walker.walks                         0                       # Table walker walks requested
system.cpu.itb.write_accesses                       0                       # DTB write accesses
system.cpu.itb.write_hits                           0                       # DTB write hits
system.cpu.itb.write_misses                         0                       # DTB write misses
system.cpu.numCycles                        392024781                       # number of cpu cycles simulated
system.cpu.numFetchSuspends                         0                       # Number of times Execute suspended instruction fetching
system.cpu.numWorkItemsCompleted                    0                       # number of work items this cpu completed
system.cpu.numWorkItemsStarted                      0                       # number of work items this cpu started
system.cpu.op_class_0::No_OpClass                   0      0.00%      0.00% # Class of committed instruction
system.cpu.op_class_0::IntAlu                50006868     50.01%     50.01% # Class of committed instruction
system.cpu.op_class_0::IntMult                     85      0.00%     50.01% # Class of committed instruction
system.cpu.op_class_0::IntDiv                       0      0.00%     50.01% # Class of committed instruction
system.cpu.op_class_0::FloatAdd                     0      0.00%     50.01% # Class of committed instruction
system.cpu.op_class_0::FloatCmp                     0      0.00%     50.01% # Class of committed instruction
system.cpu.op_class_0::FloatCvt                     0      0.00%     50.01% # Class of committed instruction
system.cpu.op_class_0::FloatMult                    0      0.00%     50.01% # Class of committed instruction
system.cpu.op_class_0::FloatMultAcc                 0      0.00%     50.01% # Class of committed instruction
system.cpu.op_class_0::FloatDiv                     0      0.00%     50.01% # Class of committed instruction
system.cpu.op_class_0::FloatMisc                    0      0.00%     50.01% # Class of committed instruction
system.cpu.op_class_0::FloatSqrt                    0      0.00%     50.01% # Class of committed instruction
system.cpu.op_class_0::SimdAdd                      0      0.00%     50.01% # Class of committed instruction
system.cpu.op_class_0::SimdAddAcc                   0      0.00%     50.01% # Class of committed instruction
system.cpu.op_class_0::SimdAlu                      0      0.00%     50.01% # Class of committed instruction
system.cpu.op_class_0::SimdCmp                      0      0.00%     50.01% # Class of committed instruction
system.cpu.op_class_0::SimdCvt                      0      0.00%     50.01% # Class of committed instruction
system.cpu.op_class_0::SimdMisc                     0      0.00%     50.01% # Class of committed instruction
system.cpu.op_class_0::SimdMult                     0      0.00%     50.01% # Class of committed instruction
system.cpu.op_class_0::SimdMultAcc                  0      0.00%     50.01% # Class of committed instruction
system.cpu.op_class_0::SimdShift                    0      0.00%     50.01% # Class of committed instruction
system.cpu.op_class_0::SimdShiftAcc                 0      0.00%     50.01% # Class of committed instruction
system.cpu.op_class_0::SimdDiv                      0      0.00%     50.01% # Class of committed instruction
system.cpu.op_class_0::SimdSqrt                     0      0.00%     50.01% # Class of committed instruction
system.cpu.op_class_0::SimdFloatAdd                 0      0.00%     50.01% # Class of committed instruction
system.cpu.op_class_0::SimdFloatAlu                 0      0.00%     50.01% # Class of committed instruction
system.cpu.op_class_0::SimdFloatCmp                 2      0.00%     50.01% # Class of committed instruction
system.cpu.op_class_0::SimdFloatCvt                 0      0.00%     50.01% # Class of committed instruction
system.cpu.op_class_0::SimdFloatDiv                 0      0.00%     50.01% # Class of committed instruction
system.cpu.op_class_0::SimdFloatMisc                5      0.00%     50.01% # Class of committed instruction
system.cpu.op_class_0::SimdFloatMult                0      0.00%     50.01% # Class of committed instruction
system.cpu.op_class_0::SimdFloatMultAcc             0      0.00%     50.01% # Class of committed instruction
system.cpu.op_class_0::SimdFloatSqrt                0      0.00%     50.01% # Class of committed instruction
system.cpu.op_class_0::SimdReduceAdd                0      0.00%     50.01% # Class of committed instruction
system.cpu.op_class_0::SimdReduceAlu                0      0.00%     50.01% # Class of committed instruction
system.cpu.op_class_0::SimdReduceCmp                0      0.00%     50.01% # Class of committed instruction
system.cpu.op_class_0::SimdFloatReduceAdd            0      0.00%     50.01% # Class of committed instruction
system.cpu.op_class_0::SimdFloatReduceCmp            0      0.00%     50.01% # Class of committed instruction
system.cpu.op_class_0::SimdAes                      0      0.00%     50.01% # Class of committed instruction
system.cpu.op_class_0::SimdAesMix                   0      0.00%     50.01% # Class of committed instruction
system.cpu.op_class_0::SimdSha1Hash                 0      0.00%     50.01% # Class of committed instruction
system.cpu.op_class_0::SimdSha1Hash2                0      0.00%     50.01% # Class of committed instruction
system.cpu.op_class_0::SimdSha256Hash               0      0.00%     50.01% # Class of committed instruction
system.cpu.op_class_0::SimdSha256Hash2              0      0.00%     50.01% # Class of committed instruction
system.cpu.op_class_0::SimdShaSigma2                0      0.00%     50.01% # Class of committed instruction
system.cpu.op_class_0::SimdShaSigma3                0      0.00%     50.01% # Class of committed instruction
system.cpu.op_class_0::SimdPredAlu                  0      0.00%     50.01% # Class of committed instruction
system.cpu.op_class_0::MemRead               36900855     36.90%     86.90% # Class of committed instruction
system.cpu.op_class_0::MemWrite              13095630     13.10%    100.00% # Class of committed instruction
system.cpu.op_class_0::FloatMemRead                 0      0.00%    100.00% # Class of committed instruction
system.cpu.op_class_0::FloatMemWrite                0      0.00%    100.00% # Class of committed instruction
system.cpu.op_class_0::IprAccess                    0      0.00%    100.00% # Class of committed instruction
system.cpu.op_class_0::InstPrefetch                 0      0.00%    100.00% # Class of committed instruction
system.cpu.op_class_0::total                100003445                       # Class of committed instruction
system.cpu.tickCycles                       122034413                       # Number of cycles that the object actually ticked
system.cpu.workload.numSyscalls                    19                       # Number of system calls
system.membus.snoop_filter.hit_multi_requests            0                       # Number of requests hitting in the snoop filter with multiple (>1) holders of the requested data.
system.membus.snoop_filter.hit_multi_snoops            0                       # Number of snoops hitting in the snoop filter with multiple (>1) holders of the requested data.
system.membus.snoop_filter.hit_single_requests      2845052                       # Number of requests hitting in the snoop filter with a single holder of the requested data.
system.membus.snoop_filter.hit_single_snoops            0                       # Number of snoops hitting in the snoop filter with a single holder of the requested data.
system.membus.snoop_filter.tot_requests       5821647                       # Total number of requests made to the snoop filter.
system.membus.snoop_filter.tot_snoops               0                       # Total number of snoops made to the snoop filter.
system.tol2bus.snoop_filter.hit_multi_requests           27                       # Number of requests hitting in the snoop filter with multiple (>1) holders of the requested data.
system.tol2bus.snoop_filter.hit_multi_snoops            1                       # Number of snoops hitting in the snoop filter with multiple (>1) holders of the requested data.
system.tol2bus.snoop_filter.hit_single_requests      2975762                       # Number of requests hitting in the snoop filter with a single holder of the requested data.
system.tol2bus.snoop_filter.hit_single_snoops          470                       # Number of snoops hitting in the snoop filter with a single holder of the requested data.
system.tol2bus.snoop_filter.tot_requests      5952504                       # Total number of requests made to the snoop filter.
system.tol2bus.snoop_filter.tot_snoops            471                       # Total number of snoops made to the snoop filter.
system.membus.pwrStateResidencyTicks::UNDEFINED 392024781000                       # Cumulative time (in ticks) in various power states
system.membus.trans_dist::ReadResp                929                       # Transaction distribution
system.membus.trans_dist::WritebackDirty      2844618                       # Transaction distribution
system.membus.trans_dist::CleanEvict              434                       # Transaction distribution
system.membus.trans_dist::ReadExReq           2975666                       # Transaction distribution
system.membus.trans_dist::ReadExResp          2975666                       # Transaction distribution
system.membus.trans_dist::ReadSharedReq           929                       # Transaction distribution
system.membus.pkt_count_system.l2.mem_side::system.mem_ctrls.port      8798242                       # Packet count per connected master and slave (bytes)
system.membus.pkt_count::total                8798242                       # Packet count per connected master and slave (bytes)
system.membus.pkt_size_system.l2.mem_side::system.mem_ctrls.port    186278816                       # Cumulative packet size per connected master and slave (bytes)
system.membus.pkt_size::total               186278816                       # Cumulative packet size per connected master and slave (bytes)
system.membus.snoops                                0                       # Total snoops (count)
system.membus.snoopTraffic                          0                       # Total snoop traffic (bytes)
system.membus.snoop_fanout::samples           2976595                       # Request fanout histogram
system.membus.snoop_fanout::mean                    0                       # Request fanout histogram
system.membus.snoop_fanout::stdev                   0                       # Request fanout histogram
system.membus.snoop_fanout::underflows              0      0.00%      0.00% # Request fanout histogram
system.membus.snoop_fanout::0                 2976595    100.00%    100.00% # Request fanout histogram
system.membus.snoop_fanout::1                       0      0.00%    100.00% # Request fanout histogram
system.membus.snoop_fanout::overflows               0      0.00%    100.00% # Request fanout histogram
system.membus.snoop_fanout::min_value               0                       # Request fanout histogram
system.membus.snoop_fanout::max_value               0                       # Request fanout histogram
system.membus.snoop_fanout::total             2976595                       # Request fanout histogram
system.membus.respLayer1.occupancy         9719424000                       # Layer occupancy (ticks)
system.membus.respLayer1.utilization              2.5                       # Layer utilization (%)
system.membus.reqLayer0.occupancy         11510883000                       # Layer occupancy (ticks)
system.membus.reqLayer0.utilization               2.9                       # Layer utilization (%)
system.tol2bus.pwrStateResidencyTicks::UNDEFINED 392024781000                       # Cumulative time (in ticks) in various power states
system.tol2bus.trans_dist::ReadResp              1075                       # Transaction distribution
system.tol2bus.trans_dist::WritebackDirty      5819803                       # Transaction distribution
system.tol2bus.trans_dist::WritebackClean          433                       # Transaction distribution
system.tol2bus.trans_dist::CleanEvict            1048                       # Transaction distribution
system.tol2bus.trans_dist::ReadExReq          2975668                       # Transaction distribution
system.tol2bus.trans_dist::ReadExResp         2975667                       # Transaction distribution
system.tol2bus.trans_dist::ReadCleanReq           902                       # Transaction distribution
system.tol2bus.trans_dist::ReadSharedReq          173                       # Transaction distribution
system.tol2bus.pkt_count_system.cpu.icache.mem_side::system.l2.cpu_side         2237                       # Packet count per connected master and slave (bytes)
system.tol2bus.pkt_count_system.cpu.dcache.mem_side::system.l2.cpu_side      8927009                       # Packet count per connected master and slave (bytes)
system.tol2bus.pkt_count::total               8929246                       # Packet count per connected master and slave (bytes)
system.tol2bus.pkt_size_system.cpu.icache.mem_side::system.l2.cpu_side        42720                       # Cumulative packet size per connected master and slave (bytes)
system.tol2bus.pkt_size_system.cpu.dcache.mem_side::system.l2.cpu_side    190432800                       # Cumulative packet size per connected master and slave (bytes)
system.tol2bus.pkt_size::total              190475520                       # Cumulative packet size per connected master and slave (bytes)
system.tol2bus.snoops                         2845523                       # Total snoops (count)
system.tol2bus.snoopTraffic                  91027776                       # Total snoop traffic (bytes)
system.tol2bus.snoop_fanout::samples          5822266                       # Request fanout histogram
system.tol2bus.snoop_fanout::mean            0.000086                       # Request fanout histogram
system.tol2bus.snoop_fanout::stdev           0.009285                       # Request fanout histogram
system.tol2bus.snoop_fanout::underflows             0      0.00%      0.00% # Request fanout histogram
system.tol2bus.snoop_fanout::0                5821767     99.99%     99.99% # Request fanout histogram
system.tol2bus.snoop_fanout::1                    498      0.01%    100.00% # Request fanout histogram
system.tol2bus.snoop_fanout::2                      1      0.00%    100.00% # Request fanout histogram
system.tol2bus.snoop_fanout::overflows              0      0.00%    100.00% # Request fanout histogram
system.tol2bus.snoop_fanout::min_value              0                       # Request fanout histogram
system.tol2bus.snoop_fanout::max_value              2                       # Request fanout histogram
system.tol2bus.snoop_fanout::total            5822266                       # Request fanout histogram
system.tol2bus.reqLayer0.occupancy         8928122000                       # Layer occupancy (ticks)
system.tol2bus.reqLayer0.utilization              2.3                       # Layer utilization (%)
system.tol2bus.respLayer1.occupancy        5951684995                       # Layer occupancy (ticks)
system.tol2bus.respLayer1.utilization             1.5                       # Layer utilization (%)
system.tol2bus.respLayer0.occupancy           1804999                       # Layer occupancy (ticks)
system.tol2bus.respLayer0.utilization             0.0                       # Layer utilization (%)
system.voltage_domain.voltage                       1                       # Voltage in Volts
system.clk_domain.clock                          1000                       # Clock period in ticks
system.l2.pwrStateResidencyTicks::UNDEFINED 392024781000                       # Cumulative time (in ticks) in various power states
system.l2.demand_hits::.cpu.inst                  126                       # number of demand (read+write) hits
system.l2.demand_hits::.cpu.data                   15                       # number of demand (read+write) hits
system.l2.demand_hits::total                      141                       # number of demand (read+write) hits
system.l2.overall_hits::.cpu.inst                 126                       # number of overall hits
system.l2.overall_hits::.cpu.data                  15                       # number of overall hits
system.l2.overall_hits::total                     141                       # number of overall hits
system.l2.demand_misses::.cpu.inst                776                       # number of demand (read+write) misses
system.l2.demand_misses::.cpu.data            2975826                       # number of demand (read+write) misses
system.l2.demand_misses::total                2976602                       # number of demand (read+write) misses
system.l2.overall_misses::.cpu.inst               776                       # number of overall misses
system.l2.overall_misses::.cpu.data           2975826                       # number of overall misses
system.l2.overall_misses::total               2976602                       # number of overall misses
system.l2.demand_miss_latency::.cpu.inst     74154000                       # number of demand (read+write) miss cycles
system.l2.demand_miss_latency::.cpu.data 288980918000                       # number of demand (read+write) miss cycles
system.l2.demand_miss_latency::total     289055072000                       # number of demand (read+write) miss cycles
system.l2.overall_miss_latency::.cpu.inst     74154000                       # number of overall miss cycles
system.l2.overall_miss_latency::.cpu.data 288980918000                       # number of overall miss cycles
system.l2.overall_miss_latency::total    289055072000                       # number of overall miss cycles
system.l2.demand_accesses::.cpu.inst              902                       # number of demand (read+write) accesses
system.l2.demand_accesses::.cpu.data          2975841                       # number of demand (read+write) accesses
system.l2.demand_accesses::total              2976743                       # number of demand (read+write) accesses
system.l2.overall_accesses::.cpu.inst             902                       # number of overall (read+write) accesses
system.l2.overall_accesses::.cpu.data         2975841                       # number of overall (read+write) accesses
system.l2.overall_accesses::total             2976743                       # number of overall (read+write) accesses
system.l2.demand_miss_rate::.cpu.inst        0.860310                       # miss rate for demand accesses
system.l2.demand_miss_rate::.cpu.data        0.999995                       # miss rate for demand accesses
system.l2.demand_miss_rate::total            0.999953                       # miss rate for demand accesses
system.l2.overall_miss_rate::.cpu.inst       0.860310                       # miss rate for overall accesses
system.l2.overall_miss_rate::.cpu.data       0.999995                       # miss rate for overall accesses
system.l2.overall_miss_rate::total           0.999953                       # miss rate for overall accesses
system.l2.demand_avg_miss_latency::.cpu.inst 95559.278351                       # average overall miss latency
system.l2.demand_avg_miss_latency::.cpu.data 97109.480863                       # average overall miss latency
system.l2.demand_avg_miss_latency::total 97109.076726                       # average overall miss latency
system.l2.overall_avg_miss_latency::.cpu.inst 95559.278351                       # average overall miss latency
system.l2.overall_avg_miss_latency::.cpu.data 97109.480863                       # average overall miss latency
system.l2.overall_avg_miss_latency::total 97109.076726                       # average overall miss latency
system.l2.blocked_cycles::no_mshrs                  0                       # number of cycles access was blocked
system.l2.blocked_cycles::no_targets                0                       # number of cycles access was blocked
system.l2.blocked::no_mshrs                         0                       # number of cycles access was blocked
system.l2.blocked::no_targets                       0                       # number of cycles access was blocked
system.l2.avg_blocked_cycles::no_mshrs            nan                       # average number of cycles each access was blocked
system.l2.avg_blocked_cycles::no_targets          nan                       # average number of cycles each access was blocked
system.l2.writebacks::.writebacks             2844618                       # number of writebacks
system.l2.writebacks::total                   2844618                       # number of writebacks
system.l2.demand_mshr_hits::.cpu.inst               1                       # number of demand (read+write) MSHR hits
system.l2.demand_mshr_hits::.cpu.data               5                       # number of demand (read+write) MSHR hits
system.l2.demand_mshr_hits::total                   6                       # number of demand (read+write) MSHR hits
system.l2.overall_mshr_hits::.cpu.inst              1                       # number of overall MSHR hits
system.l2.overall_mshr_hits::.cpu.data              5                       # number of overall MSHR hits
system.l2.overall_mshr_hits::total                  6                       # number of overall MSHR hits
system.l2.demand_mshr_misses::.cpu.inst           775                       # number of demand (read+write) MSHR misses
system.l2.demand_mshr_misses::.cpu.data       2975821                       # number of demand (read+write) MSHR misses
system.l2.demand_mshr_misses::total           2976596                       # number of demand (read+write) MSHR misses
system.l2.overall_mshr_misses::.cpu.inst          775                       # number of overall MSHR misses
system.l2.overall_mshr_misses::.cpu.data      2975821                       # number of overall MSHR misses
system.l2.overall_mshr_misses::total          2976596                       # number of overall MSHR misses
system.l2.demand_mshr_miss_latency::.cpu.inst     58618000                       # number of demand (read+write) MSHR miss cycles
system.l2.demand_mshr_miss_latency::.cpu.data 229463882000                       # number of demand (read+write) MSHR miss cycles
system.l2.demand_mshr_miss_latency::total 229522500000                       # number of demand (read+write) MSHR miss cycles
system.l2.overall_mshr_miss_latency::.cpu.inst     58618000                       # number of overall MSHR miss cycles
system.l2.overall_mshr_miss_latency::.cpu.data 229463882000                       # number of overall MSHR miss cycles
system.l2.overall_mshr_miss_latency::total 229522500000                       # number of overall MSHR miss cycles
system.l2.demand_mshr_miss_rate::.cpu.inst     0.859202                       # mshr miss rate for demand accesses
system.l2.demand_mshr_miss_rate::.cpu.data     0.999993                       # mshr miss rate for demand accesses
system.l2.demand_mshr_miss_rate::total       0.999951                       # mshr miss rate for demand accesses
system.l2.overall_mshr_miss_rate::.cpu.inst     0.859202                       # mshr miss rate for overall accesses
system.l2.overall_mshr_miss_rate::.cpu.data     0.999993                       # mshr miss rate for overall accesses
system.l2.overall_mshr_miss_rate::total      0.999951                       # mshr miss rate for overall accesses
system.l2.demand_avg_mshr_miss_latency::.cpu.inst 75636.129032                       # average overall mshr miss latency
system.l2.demand_avg_mshr_miss_latency::.cpu.data 77109.437026                       # average overall mshr miss latency
system.l2.demand_avg_mshr_miss_latency::total 77109.053429                       # average overall mshr miss latency
system.l2.overall_avg_mshr_miss_latency::.cpu.inst 75636.129032                       # average overall mshr miss latency
system.l2.overall_avg_mshr_miss_latency::.cpu.data 77109.437026                       # average overall mshr miss latency
system.l2.overall_avg_mshr_miss_latency::total 77109.053429                       # average overall mshr miss latency
system.l2.replacements                        2845523                       # number of replacements
system.l2.WritebackDirty_hits::.writebacks      2975185                       # number of WritebackDirty hits
system.l2.WritebackDirty_hits::total          2975185                       # number of WritebackDirty hits
system.l2.WritebackDirty_accesses::.writebacks      2975185                       # number of WritebackDirty accesses(hits+misses)
system.l2.WritebackDirty_accesses::total      2975185                       # number of WritebackDirty accesses(hits+misses)
system.l2.WritebackClean_hits::.writebacks          424                       # number of WritebackClean hits
system.l2.WritebackClean_hits::total              424                       # number of WritebackClean hits
system.l2.WritebackClean_accesses::.writebacks          424                       # number of WritebackClean accesses(hits+misses)
system.l2.WritebackClean_accesses::total          424                       # number of WritebackClean accesses(hits+misses)
system.l2.ReadExReq_hits::.cpu.data                 1                       # number of ReadExReq hits
system.l2.ReadExReq_hits::total                     1                       # number of ReadExReq hits
system.l2.ReadExReq_misses::.cpu.data         2975667                       # number of ReadExReq misses
system.l2.ReadExReq_misses::total             2975667                       # number of ReadExReq misses
system.l2.ReadExReq_miss_latency::.cpu.data 288964931000                       # number of ReadExReq miss cycles
system.l2.ReadExReq_miss_latency::total  288964931000                       # number of ReadExReq miss cycles
system.l2.ReadExReq_accesses::.cpu.data       2975668                       # number of ReadExReq accesses(hits+misses)
system.l2.ReadExReq_accesses::total           2975668                       # number of ReadExReq accesses(hits+misses)
system.l2.ReadExReq_miss_rate::.cpu.data     1.000000                       # miss rate for ReadExReq accesses
system.l2.ReadExReq_miss_rate::total         1.000000                       # miss rate for ReadExReq accesses
system.l2.ReadExReq_avg_miss_latency::.cpu.data 97109.297176                       # average ReadExReq miss latency
system.l2.ReadExReq_avg_miss_latency::total 97109.297176                       # average ReadExReq miss latency
system.l2.ReadExReq_mshr_misses::.cpu.data      2975667                       # number of ReadExReq MSHR misses
system.l2.ReadExReq_mshr_misses::total        2975667                       # number of ReadExReq MSHR misses
system.l2.ReadExReq_mshr_miss_latency::.cpu.data 229451611000                       # number of ReadExReq MSHR miss cycles
system.l2.ReadExReq_mshr_miss_latency::total 229451611000                       # number of ReadExReq MSHR miss cycles
system.l2.ReadExReq_mshr_miss_rate::.cpu.data     1.000000                       # mshr miss rate for ReadExReq accesses
system.l2.ReadExReq_mshr_miss_rate::total     1.000000                       # mshr miss rate for ReadExReq accesses
system.l2.ReadExReq_avg_mshr_miss_latency::.cpu.data 77109.303897                       # average ReadExReq mshr miss latency
system.l2.ReadExReq_avg_mshr_miss_latency::total 77109.303897                       # average ReadExReq mshr miss latency
system.l2.ReadCleanReq_hits::.cpu.inst            126                       # number of ReadCleanReq hits
system.l2.ReadCleanReq_hits::total                126                       # number of ReadCleanReq hits
system.l2.ReadCleanReq_misses::.cpu.inst          776                       # number of ReadCleanReq misses
system.l2.ReadCleanReq_misses::total              776                       # number of ReadCleanReq misses
system.l2.ReadCleanReq_miss_latency::.cpu.inst     74154000                       # number of ReadCleanReq miss cycles
system.l2.ReadCleanReq_miss_latency::total     74154000                       # number of ReadCleanReq miss cycles
system.l2.ReadCleanReq_accesses::.cpu.inst          902                       # number of ReadCleanReq accesses(hits+misses)
system.l2.ReadCleanReq_accesses::total            902                       # number of ReadCleanReq accesses(hits+misses)
system.l2.ReadCleanReq_miss_rate::.cpu.inst     0.860310                       # miss rate for ReadCleanReq accesses
system.l2.ReadCleanReq_miss_rate::total      0.860310                       # miss rate for ReadCleanReq accesses
system.l2.ReadCleanReq_avg_miss_latency::.cpu.inst 95559.278351                       # average ReadCleanReq miss latency
system.l2.ReadCleanReq_avg_miss_latency::total 95559.278351                       # average ReadCleanReq miss latency
system.l2.ReadCleanReq_mshr_hits::.cpu.inst            1                       # number of ReadCleanReq MSHR hits
system.l2.ReadCleanReq_mshr_hits::total             1                       # number of ReadCleanReq MSHR hits
system.l2.ReadCleanReq_mshr_misses::.cpu.inst          775                       # number of ReadCleanReq MSHR misses
system.l2.ReadCleanReq_mshr_misses::total          775                       # number of ReadCleanReq MSHR misses
system.l2.ReadCleanReq_mshr_miss_latency::.cpu.inst     58618000                       # number of ReadCleanReq MSHR miss cycles
system.l2.ReadCleanReq_mshr_miss_latency::total     58618000                       # number of ReadCleanReq MSHR miss cycles
system.l2.ReadCleanReq_mshr_miss_rate::.cpu.inst     0.859202                       # mshr miss rate for ReadCleanReq accesses
system.l2.ReadCleanReq_mshr_miss_rate::total     0.859202                       # mshr miss rate for ReadCleanReq accesses
system.l2.ReadCleanReq_avg_mshr_miss_latency::.cpu.inst 75636.129032                       # average ReadCleanReq mshr miss latency
system.l2.ReadCleanReq_avg_mshr_miss_latency::total 75636.129032                       # average ReadCleanReq mshr miss latency
system.l2.ReadSharedReq_hits::.cpu.data            14                       # number of ReadSharedReq hits
system.l2.ReadSharedReq_hits::total                14                       # number of ReadSharedReq hits
system.l2.ReadSharedReq_misses::.cpu.data          159                       # number of ReadSharedReq misses
system.l2.ReadSharedReq_misses::total             159                       # number of ReadSharedReq misses
system.l2.ReadSharedReq_miss_latency::.cpu.data     15987000                       # number of ReadSharedReq miss cycles
system.l2.ReadSharedReq_miss_latency::total     15987000                       # number of ReadSharedReq miss cycles
system.l2.ReadSharedReq_accesses::.cpu.data          173                       # number of ReadSharedReq accesses(hits+misses)
system.l2.ReadSharedReq_accesses::total           173                       # number of ReadSharedReq accesses(hits+misses)
system.l2.ReadSharedReq_miss_rate::.cpu.data     0.919075                       # miss rate for ReadSharedReq accesses
system.l2.ReadSharedReq_miss_rate::total     0.919075                       # miss rate for ReadSharedReq accesses
system.l2.ReadSharedReq_avg_miss_latency::.cpu.data 100547.169811                       # average ReadSharedReq miss latency
system.l2.ReadSharedReq_avg_miss_latency::total 100547.169811                       # average ReadSharedReq miss latency
system.l2.ReadSharedReq_mshr_hits::.cpu.data            5                       # number of ReadSharedReq MSHR hits
system.l2.ReadSharedReq_mshr_hits::total            5                       # number of ReadSharedReq MSHR hits
system.l2.ReadSharedReq_mshr_misses::.cpu.data          154                       # number of ReadSharedReq MSHR misses
system.l2.ReadSharedReq_mshr_misses::total          154                       # number of ReadSharedReq MSHR misses
system.l2.ReadSharedReq_mshr_miss_latency::.cpu.data     12271000                       # number of ReadSharedReq MSHR miss cycles
system.l2.ReadSharedReq_mshr_miss_latency::total     12271000                       # number of ReadSharedReq MSHR miss cycles
system.l2.ReadSharedReq_mshr_miss_rate::.cpu.data     0.890173                       # mshr miss rate for ReadSharedReq accesses
system.l2.ReadSharedReq_mshr_miss_rate::total     0.890173                       # mshr miss rate for ReadSharedReq accesses
system.l2.ReadSharedReq_avg_mshr_miss_latency::.cpu.data 79681.818182                       # average ReadSharedReq mshr miss latency
system.l2.ReadSharedReq_avg_mshr_miss_latency::total 79681.818182                       # average ReadSharedReq mshr miss latency
system.l2.tags.pwrStateResidencyTicks::UNDEFINED 392024781000                       # Cumulative time (in ticks) in various power states
system.l2.tags.tagsinuse                 128230.613230                       # Cycle average of tags in use
system.l2.tags.total_refs                     5952470                       # Total number of references to valid blocks.
system.l2.tags.sampled_refs                   2976595                       # Sample count of references to valid blocks.
system.l2.tags.avg_refs                      1.999758                       # Average number of references to valid blocks.
system.l2.tags.warmup_cycle                     87000                       # Cycle when the warmup percentage was hit.
system.l2.tags.occ_blocks::.cpu.inst        30.256098                       # Average occupied blocks per requestor
system.l2.tags.occ_blocks::.cpu.data     128200.357132                       # Average occupied blocks per requestor
system.l2.tags.occ_percent::.cpu.inst        0.000231                       # Average percentage of cache occupancy
system.l2.tags.occ_percent::.cpu.data        0.978091                       # Average percentage of cache occupancy
system.l2.tags.occ_percent::total            0.978322                       # Average percentage of cache occupancy
system.l2.tags.occ_task_id_blocks::1024        131072                       # Occupied blocks per task id
system.l2.tags.age_task_id_blocks_1024::0           77                       # Occupied blocks per task id
system.l2.tags.age_task_id_blocks_1024::1          682                       # Occupied blocks per task id
system.l2.tags.age_task_id_blocks_1024::2         6827                       # Occupied blocks per task id
system.l2.tags.age_task_id_blocks_1024::3        68288                       # Occupied blocks per task id
system.l2.tags.age_task_id_blocks_1024::4        55198                       # Occupied blocks per task id
system.l2.tags.occ_task_id_percent::1024            1                       # Percentage of cache occupancy per task id
system.l2.tags.tag_accesses                  14881549                       # Number of tag accesses
system.l2.tags.data_accesses                 14881549                       # Number of data accesses
system.cpu_voltage_domain.voltage                   1                       # Voltage in Volts
system.mem_ctrls.pwrStateResidencyTicks::UNDEFINED 392024781000                       # Cumulative time (in ticks) in various power states
system.mem_ctrls.bytes_read::.cpu.inst          24800                       # Number of bytes read from this memory
system.mem_ctrls.bytes_read::.cpu.data       95226240                       # Number of bytes read from this memory
system.mem_ctrls.bytes_read::total           95251040                       # Number of bytes read from this memory
system.mem_ctrls.bytes_inst_read::.cpu.inst        24800                       # Number of instructions bytes read from this memory
system.mem_ctrls.bytes_inst_read::total         24800                       # Number of instructions bytes read from this memory
system.mem_ctrls.bytes_written::.writebacks     91027776                       # Number of bytes written to this memory
system.mem_ctrls.bytes_written::total        91027776                       # Number of bytes written to this memory
system.mem_ctrls.num_reads::.cpu.inst             775                       # Number of read requests responded to by this memory
system.mem_ctrls.num_reads::.cpu.data         2975820                       # Number of read requests responded to by this memory
system.mem_ctrls.num_reads::total             2976595                       # Number of read requests responded to by this memory
system.mem_ctrls.num_writes::.writebacks      2844618                       # Number of write requests responded to by this memory
system.mem_ctrls.num_writes::total            2844618                       # Number of write requests responded to by this memory
system.mem_ctrls.bw_read::.cpu.inst             63261                       # Total read bandwidth from this memory (bytes/s)
system.mem_ctrls.bw_read::.cpu.data         242908726                       # Total read bandwidth from this memory (bytes/s)
system.mem_ctrls.bw_read::total             242971987                       # Total read bandwidth from this memory (bytes/s)
system.mem_ctrls.bw_inst_read::.cpu.inst        63261                       # Instruction read bandwidth from this memory (bytes/s)
system.mem_ctrls.bw_inst_read::total            63261                       # Instruction read bandwidth from this memory (bytes/s)
system.mem_ctrls.bw_write::.writebacks      232199035                       # Write bandwidth from this memory (bytes/s)
system.mem_ctrls.bw_write::total            232199035                       # Write bandwidth from this memory (bytes/s)
system.mem_ctrls.bw_total::.writebacks      232199035                       # Total bandwidth to/from this memory (bytes/s)
system.mem_ctrls.bw_total::.cpu.inst            63261                       # Total bandwidth to/from this memory (bytes/s)
system.mem_ctrls.bw_total::.cpu.data        242908726                       # Total bandwidth to/from this memory (bytes/s)
system.mem_ctrls.bw_total::total            475171022                       # Total bandwidth to/from this memory (bytes/s)
system.mem_ctrls.avgPriority_.writebacks::samples   1422321.00                       # Average QoS priority value for accepted requests
system.mem_ctrls.avgPriority_.cpu.inst::samples       775.00                       # Average QoS priority value for accepted requests
system.mem_ctrls.avgPriority_.cpu.data::samples   2975820.00                       # Average QoS priority value for accepted requests
system.mem_ctrls.priorityMinLatency      0.000000018750                       # per QoS priority minimum request to response latency (s)
system.mem_ctrls.priorityMaxLatency      0.011758048500                       # per QoS priority maximum request to response latency (s)
system.mem_ctrls.numReadWriteTurnArounds        88893                       # Number of turnarounds from READ to WRITE
system.mem_ctrls.numWriteReadTurnArounds        88893                       # Number of turnarounds from WRITE to READ
system.mem_ctrls.numStayReadState             8809604                       # Number of times bus staying in READ state
system.mem_ctrls.numStayWriteState            1333401                       # Number of times bus staying in WRITE state
system.mem_ctrls.readReqs                     2976595                       # Number of read requests accepted
system.mem_ctrls.writeReqs                    2844618                       # Number of write requests accepted
system.mem_ctrls.readBursts                   2976595                       # Number of DRAM read bursts, including those serviced by the write queue
system.mem_ctrls.writeBursts                  2844618                       # Number of DRAM write bursts, including those merged in the write queue
system.mem_ctrls.servicedByWrQ                      0                       # Number of DRAM read bursts serviced by the write queue
system.mem_ctrls.mergedWrBursts               1422297                       # Number of DRAM write bursts merged with an existing one
system.mem_ctrls.neitherReadNorWriteReqs            0                       # Number of requests that are neither read nor write
system.mem_ctrls.perBankRdBursts::0            185977                       # Per bank write bursts
system.mem_ctrls.perBankRdBursts::1            185941                       # Per bank write bursts
system.mem_ctrls.perBankRdBursts::2            186176                       # Per bank write bursts
system.mem_ctrls.perBankRdBursts::3            186157                       # Per bank write bursts
system.mem_ctrls.perBankRdBursts::4            186177                       # Per bank write bursts
system.mem_ctrls.perBankRdBursts::5            186122                       # Per bank write bursts
system.mem_ctrls.perBankRdBursts::6            186154                       # Per bank write bursts
system.mem_ctrls.perBankRdBursts::7            186130                       # Per bank write bursts
system.mem_ctrls.perBankRdBursts::8            186220                       # Per bank write bursts
system.mem_ctrls.perBankRdBursts::9            186062                       # Per bank write bursts
system.mem_ctrls.perBankRdBursts::10           185908                       # Per bank write bursts
system.mem_ctrls.perBankRdBursts::11           185890                       # Per bank write bursts
system.mem_ctrls.perBankRdBursts::12           185995                       # Per bank write bursts
system.mem_ctrls.perBankRdBursts::13           185860                       # Per bank write bursts
system.mem_ctrls.perBankRdBursts::14           185883                       # Per bank write bursts
system.mem_ctrls.perBankRdBursts::15           185943                       # Per bank write bursts
system.mem_ctrls.perBankWrBursts::0             88856                       # Per bank write bursts
system.mem_ctrls.perBankWrBursts::1             88847                       # Per bank write bursts
system.mem_ctrls.perBankWrBursts::2             88900                       # Per bank write bursts
system.mem_ctrls.perBankWrBursts::3             88961                       # Per bank write bursts
system.mem_ctrls.perBankWrBursts::4             88960                       # Per bank write bursts
system.mem_ctrls.perBankWrBursts::5             88960                       # Per bank write bursts
system.mem_ctrls.perBankWrBursts::6             88960                       # Per bank write bursts
system.mem_ctrls.perBankWrBursts::7             88960                       # Per bank write bursts
system.mem_ctrls.perBankWrBursts::8             88960                       # Per bank write bursts
system.mem_ctrls.perBankWrBursts::9             88893                       # Per bank write bursts
system.mem_ctrls.perBankWrBursts::10            88832                       # Per bank write bursts
system.mem_ctrls.perBankWrBursts::11            88832                       # Per bank write bursts
system.mem_ctrls.perBankWrBursts::12            88832                       # Per bank write bursts
system.mem_ctrls.perBankWrBursts::13            88832                       # Per bank write bursts
system.mem_ctrls.perBankWrBursts::14            88836                       # Per bank write bursts
system.mem_ctrls.perBankWrBursts::15            88871                       # Per bank write bursts
system.mem_ctrls.avgRdQLen                       1.00                       # Average read queue length when enqueuing
system.mem_ctrls.avgWrQLen                      24.61                       # Average write queue length when enqueuing
system.mem_ctrls.totQLat                  21115359750                       # Total ticks spent queuing
system.mem_ctrls.totBusLat                14882975000                       # Total ticks spent in databus transfers
system.mem_ctrls.totMemAccLat             76926516000                       # Total ticks spent from burst creation until serviced by the DRAM
system.mem_ctrls.avgQLat                      7093.80                       # Average queueing delay per DRAM burst
system.mem_ctrls.avgBusLat                    5000.00                       # Average bus latency per DRAM burst
system.mem_ctrls.avgMemAccLat                25843.80                       # Average memory access latency per DRAM burst
system.mem_ctrls.numRdRetry                         0                       # Number of times read queue was full causing retry
system.mem_ctrls.numWrRetry                         0                       # Number of times write queue was full causing retry
system.mem_ctrls.readRowHits                  2733934                       # Number of row buffer hits during reads
system.mem_ctrls.writeRowHits                 1322281                       # Number of row buffer hits during writes
system.mem_ctrls.readRowHitRate                 91.85                       # Row buffer hit rate for reads
system.mem_ctrls.writeRowHitRate                92.97                       # Row buffer hit rate for writes
system.mem_ctrls.readPktSize::0                     0                       # Read request sizes (log2)
system.mem_ctrls.readPktSize::1                     0                       # Read request sizes (log2)
system.mem_ctrls.readPktSize::2                     0                       # Read request sizes (log2)
system.mem_ctrls.readPktSize::3                     0                       # Read request sizes (log2)
system.mem_ctrls.readPktSize::4                     0                       # Read request sizes (log2)
system.mem_ctrls.readPktSize::5               2976595                       # Read request sizes (log2)
system.mem_ctrls.readPktSize::6                     0                       # Read request sizes (log2)
system.mem_ctrls.writePktSize::0                    0                       # Write request sizes (log2)
system.mem_ctrls.writePktSize::1                    0                       # Write request sizes (log2)
system.mem_ctrls.writePktSize::2                    0                       # Write request sizes (log2)
system.mem_ctrls.writePktSize::3                    0                       # Write request sizes (log2)
system.mem_ctrls.writePktSize::4                    0                       # Write request sizes (log2)
system.mem_ctrls.writePktSize::5              2844618                       # Write request sizes (log2)
system.mem_ctrls.writePktSize::6                    0                       # Write request sizes (log2)
system.mem_ctrls.rdQLenPdf::0                 2976448                       # What read queue length does an incoming req see
system.mem_ctrls.rdQLenPdf::1                     134                       # What read queue length does an incoming req see
system.mem_ctrls.rdQLenPdf::2                      11                       # What read queue length does an incoming req see
system.mem_ctrls.rdQLenPdf::3                       2                       # What read queue length does an incoming req see
system.mem_ctrls.rdQLenPdf::4                       0                       # What read queue length does an incoming req see
system.mem_ctrls.rdQLenPdf::5                       0                       # What read queue length does an incoming req see
system.mem_ctrls.rdQLenPdf::6                       0                       # What read queue length does an incoming req see
system.mem_ctrls.rdQLenPdf::7                       0                       # What read queue length does an incoming req see
system.mem_ctrls.rdQLenPdf::8                       0                       # What read queue length does an incoming req see
system.mem_ctrls.rdQLenPdf::9                       0                       # What read queue length does an incoming req see
system.mem_ctrls.rdQLenPdf::10                      0                       # What read queue length does an incoming req see
system.mem_ctrls.rdQLenPdf::11                      0                       # What read queue length does an incoming req see
system.mem_ctrls.rdQLenPdf::12                      0                       # What read queue length does an incoming req see
system.mem_ctrls.rdQLenPdf::13                      0                       # What read queue length does an incoming req see
system.mem_ctrls.rdQLenPdf::14                      0                       # What read queue length does an incoming req see
system.mem_ctrls.rdQLenPdf::15                      0                       # What read queue length does an incoming req see
system.mem_ctrls.rdQLenPdf::16                      0                       # What read queue length does an incoming req see
system.mem_ctrls.rdQLenPdf::17                      0                       # What read queue length does an incoming req see
system.mem_ctrls.rdQLenPdf::18                      0                       # What read queue length does an incoming req see
system.mem_ctrls.rdQLenPdf::19                      0                       # What read queue length does an incoming req see
system.mem_ctrls.rdQLenPdf::20                      0                       # What read queue length does an incoming req see
system.mem_ctrls.rdQLenPdf::21                      0                       # What read queue length does an incoming req see
system.mem_ctrls.rdQLenPdf::22                      0                       # What read queue length does an incoming req see
system.mem_ctrls.rdQLenPdf::23                      0                       # What read queue length does an incoming req see
system.mem_ctrls.rdQLenPdf::24                      0                       # What read queue length does an incoming req see
system.mem_ctrls.rdQLenPdf::25                      0                       # What read queue length does an incoming req see
system.mem_ctrls.rdQLenPdf::26                      0                       # What read queue length does an incoming req see
system.mem_ctrls.rdQLenPdf::27                      0                       # What read queue length does an incoming req see
system.mem_ctrls.rdQLenPdf::28                      0                       # What read queue length does an incoming req see
system.mem_ctrls.rdQLenPdf::29                      0                       # What read queue length does an incoming req see
system.mem_ctrls.rdQLenPdf::30                      0                       # What read queue length does an incoming req see
system.mem_ctrls.rdQLenPdf::31                      0                       # What read queue length does an incoming req see
system.mem_ctrls.wrQLenPdf::0                       1                       # What write queue length does an incoming req see
system.mem_ctrls.wrQLenPdf::1                       1                       # What write queue length does an incoming req see
system.mem_ctrls.wrQLenPdf::2                       1                       # What write queue length does an incoming req see
system.mem_ctrls.wrQLenPdf::3                       1                       # What write queue length does an incoming req see
system.mem_ctrls.wrQLenPdf::4                       1                       # What write queue length does an incoming req see
system.mem_ctrls.wrQLenPdf::5                       1                       # What write queue length does an incoming req see
system.mem_ctrls.wrQLenPdf::6                       1                       # What write queue length does an incoming req see
system.mem_ctrls.wrQLenPdf::7                       1                       # What write queue length does an incoming req see
system.mem_ctrls.wrQLenPdf::8                       1                       # What write queue length does an incoming req see
system.mem_ctrls.wrQLenPdf::9                       1                       # What write queue length does an incoming req see
system.mem_ctrls.wrQLenPdf::10                      1                       # What write queue length does an incoming req see
system.mem_ctrls.wrQLenPdf::11                      1                       # What write queue length does an incoming req see
system.mem_ctrls.wrQLenPdf::12                      1                       # What write queue length does an incoming req see
system.mem_ctrls.wrQLenPdf::13                      1                       # What write queue length does an incoming req see
system.mem_ctrls.wrQLenPdf::14                      1                       # What write queue length does an incoming req see
system.mem_ctrls.wrQLenPdf::15                      3                       # What write queue length does an incoming req see
system.mem_ctrls.wrQLenPdf::16                      3                       # What write queue length does an incoming req see
system.mem_ctrls.wrQLenPdf::17                  88894                       # What write queue length does an incoming req see
system.mem_ctrls.wrQLenPdf::18                  88894                       # What write queue length does an incoming req see
system.mem_ctrls.wrQLenPdf::19                  88894                       # What write queue length does an incoming req see
system.mem_ctrls.wrQLenPdf::20                  88894                       # What write queue length does an incoming req see
system.mem_ctrls.wrQLenPdf::21                  88894                       # What write queue length does an incoming req see
system.mem_ctrls.wrQLenPdf::22                  88894                       # What write queue length does an incoming req see
system.mem_ctrls.wrQLenPdf::23                  88894                       # What write queue length does an incoming req see
system.mem_ctrls.wrQLenPdf::24                  88894                       # What write queue length does an incoming req see
system.mem_ctrls.wrQLenPdf::25                  88894                       # What write queue length does an incoming req see
system.mem_ctrls.wrQLenPdf::26                  88894                       # What write queue length does an incoming req see
system.mem_ctrls.wrQLenPdf::27                  88894                       # What write queue length does an incoming req see
system.mem_ctrls.wrQLenPdf::28                  88894                       # What write queue length does an incoming req see
system.mem_ctrls.wrQLenPdf::29                  88893                       # What write queue length does an incoming req see
system.mem_ctrls.wrQLenPdf::30                  88893                       # What write queue length does an incoming req see
system.mem_ctrls.wrQLenPdf::31                  88893                       # What write queue length does an incoming req see
system.mem_ctrls.wrQLenPdf::32                  88893                       # What write queue length does an incoming req see
system.mem_ctrls.wrQLenPdf::33                      0                       # What write queue length does an incoming req see
system.mem_ctrls.wrQLenPdf::34                      0                       # What write queue length does an incoming req see
system.mem_ctrls.wrQLenPdf::35                      0                       # What write queue length does an incoming req see
system.mem_ctrls.wrQLenPdf::36                      0                       # What write queue length does an incoming req see
system.mem_ctrls.wrQLenPdf::37                      0                       # What write queue length does an incoming req see
system.mem_ctrls.wrQLenPdf::38                      0                       # What write queue length does an incoming req see
system.mem_ctrls.wrQLenPdf::39                      0                       # What write queue length does an incoming req see
system.mem_ctrls.wrQLenPdf::40                      0                       # What write queue length does an incoming req see
system.mem_ctrls.wrQLenPdf::41                      0                       # What write queue length does an incoming req see
system.mem_ctrls.wrQLenPdf::42                      0                       # What write queue length does an incoming req see
system.mem_ctrls.wrQLenPdf::43                      0                       # What write queue length does an incoming req see
system.mem_ctrls.wrQLenPdf::44                      0                       # What write queue length does an incoming req see
system.mem_ctrls.wrQLenPdf::45                      0                       # What write queue length does an incoming req see
system.mem_ctrls.wrQLenPdf::46                      0                       # What write queue length does an incoming req see
system.mem_ctrls.wrQLenPdf::47                      0                       # What write queue length does an incoming req see
system.mem_ctrls.wrQLenPdf::48                      0                       # What write queue length does an incoming req see
system.mem_ctrls.wrQLenPdf::49                      0                       # What write queue length does an incoming req see
system.mem_ctrls.wrQLenPdf::50                      0                       # What write queue length does an incoming req see
system.mem_ctrls.wrQLenPdf::51                      0                       # What write queue length does an incoming req see
system.mem_ctrls.wrQLenPdf::52                      0                       # What write queue length does an incoming req see
system.mem_ctrls.wrQLenPdf::53                      0                       # What write queue length does an incoming req see
system.mem_ctrls.wrQLenPdf::54                      0                       # What write queue length does an incoming req see
system.mem_ctrls.wrQLenPdf::55                      0                       # What write queue length does an incoming req see
system.mem_ctrls.wrQLenPdf::56                      0                       # What write queue length does an incoming req see
system.mem_ctrls.wrQLenPdf::57                      0                       # What write queue length does an incoming req see
system.mem_ctrls.wrQLenPdf::58                      0                       # What write queue length does an incoming req see
system.mem_ctrls.wrQLenPdf::59                      0                       # What write queue length does an incoming req see
system.mem_ctrls.wrQLenPdf::60                      0                       # What write queue length does an incoming req see
system.mem_ctrls.wrQLenPdf::61                      0                       # What write queue length does an incoming req see
system.mem_ctrls.wrQLenPdf::62                      0                       # What write queue length does an incoming req see
system.mem_ctrls.wrQLenPdf::63                      0                       # What write queue length does an incoming req see
system.mem_ctrls.bytesPerActivate::samples       342671                       # Bytes accessed per row activation
system.mem_ctrls.bytesPerActivate::mean    821.571058                       # Bytes accessed per row activation
system.mem_ctrls.bytesPerActivate::gmean   712.163418                       # Bytes accessed per row activation
system.mem_ctrls.bytesPerActivate::stdev   311.720760                       # Bytes accessed per row activation
system.mem_ctrls.bytesPerActivate::0-127         7592      2.22%      2.22% # Bytes accessed per row activation
system.mem_ctrls.bytesPerActivate::128-255        26090      7.61%      9.83% # Bytes accessed per row activation
system.mem_ctrls.bytesPerActivate::256-383        22374      6.53%     16.36% # Bytes accessed per row activation
system.mem_ctrls.bytesPerActivate::384-511        14977      4.37%     20.73% # Bytes accessed per row activation
system.mem_ctrls.bytesPerActivate::512-639         7580      2.21%     22.94% # Bytes accessed per row activation
system.mem_ctrls.bytesPerActivate::640-767        18661      5.45%     28.39% # Bytes accessed per row activation
system.mem_ctrls.bytesPerActivate::768-895        20303      5.92%     34.31% # Bytes accessed per row activation
system.mem_ctrls.bytesPerActivate::896-1023        11214      3.27%     37.58% # Bytes accessed per row activation
system.mem_ctrls.bytesPerActivate::1024-1151       213880     62.42%    100.00% # Bytes accessed per row activation
system.mem_ctrls.bytesPerActivate::total       342671                       # Bytes accessed per row activation
system.mem_ctrls.rdPerTurnAround::samples        88893                       # Reads before turning the bus around for writes
system.mem_ctrls.rdPerTurnAround::mean      33.484864                       # Reads before turning the bus around for writes
system.mem_ctrls.rdPerTurnAround::gmean     32.006455                       # Reads before turning the bus around for writes
system.mem_ctrls.rdPerTurnAround::stdev    426.958179                       # Reads before turning the bus around for writes
system.mem_ctrls.rdPerTurnAround::0-4095        88891    100.00%    100.00% # Reads before turning the bus around for writes
system.mem_ctrls.rdPerTurnAround::4096-8191            1      0.00%    100.00% # Reads before turning the bus around for writes
system.mem_ctrls.rdPerTurnAround::126976-131071            1      0.00%    100.00% # Reads before turning the bus around for writes
system.mem_ctrls.rdPerTurnAround::total         88893                       # Reads before turning the bus around for writes
system.mem_ctrls.wrPerTurnAround::samples        88893                       # Writes before turning the bus around for reads
system.mem_ctrls.wrPerTurnAround::mean      16.000045                       # Writes before turning the bus around for reads
system.mem_ctrls.wrPerTurnAround::gmean     16.000042                       # Writes before turning the bus around for reads
[...]
system.cpu.icache.tags.occ_blocks::.cpu.inst   468.950636                       # Average occupied blocks per requestor
system.cpu.icache.tags.occ_percent::.cpu.inst     0.915919                       # Average percentage of cache occupancy
system.cpu.icache.tags.occ_percent::total     0.915919                       # Average percentage of cache occupancy
system.cpu.icache.tags.occ_task_id_blocks::1024          469                       # Occupied blocks per task id
system.cpu.icache.tags.age_task_id_blocks_1024::4          469                       # Occupied blocks per task id
system.cpu.icache.tags.occ_task_id_percent::1024     0.916016                       # Percentage of cache occupancy per task id
system.cpu.icache.tags.tag_accesses          19062058                       # Number of tag accesses
system.cpu.icache.tags.data_accesses         19062058                       # Number of data accesses
system.cpu.dtb.walker.pwrStateResidencyTicks::UNDEFINED 392024781000                       # Cumulative time (in ticks) in various power states
system.cpu.dtb.stage2_mmu.stage2_tlb.walker.pwrStateResidencyTicks::UNDEFINED 392024781000                       # Cumulative time (in ticks) in various power states
system.cpu.dcache.pwrStateResidencyTicks::UNDEFINED 392024781000                       # Cumulative time (in ticks) in various power states
system.cpu.dcache.demand_hits::.cpu.data     42855030                       # number of demand (read+write) hits
system.cpu.dcache.demand_hits::total         42855030                       # number of demand (read+write) hits
system.cpu.dcache.overall_hits::.cpu.data     42855057                       # number of overall hits
system.cpu.dcache.overall_hits::total        42855057                       # number of overall hits
system.cpu.dcache.demand_misses::.cpu.data      5951447                       # number of demand (read+write) misses
system.cpu.dcache.demand_misses::total        5951447                       # number of demand (read+write) misses
system.cpu.dcache.overall_misses::.cpu.data      5951472                       # number of overall misses
system.cpu.dcache.overall_misses::total       5951472                       # number of overall misses
system.cpu.dcache.demand_miss_latency::.cpu.data 573180189000                       # number of demand (read+write) miss cycles
system.cpu.dcache.demand_miss_latency::total 573180189000                       # number of demand (read+write) miss cycles
system.cpu.dcache.overall_miss_latency::.cpu.data 573180189000                       # number of overall miss cycles
system.cpu.dcache.overall_miss_latency::total 573180189000                       # number of overall miss cycles
system.cpu.dcache.demand_accesses::.cpu.data     48806477                       # number of demand (read+write) accesses
system.cpu.dcache.demand_accesses::total     48806477                       # number of demand (read+write) accesses
system.cpu.dcache.overall_accesses::.cpu.data     48806529                       # number of overall (read+write) accesses
system.cpu.dcache.overall_accesses::total     48806529                       # number of overall (read+write) accesses
system.cpu.dcache.demand_miss_rate::.cpu.data     0.121940                       # miss rate for demand accesses
system.cpu.dcache.demand_miss_rate::total     0.121940                       # miss rate for demand accesses
system.cpu.dcache.overall_miss_rate::.cpu.data     0.121940                       # miss rate for overall accesses
system.cpu.dcache.overall_miss_rate::total     0.121940                       # miss rate for overall accesses
system.cpu.dcache.demand_avg_miss_latency::.cpu.data 96309.383079                       # average overall miss latency
system.cpu.dcache.demand_avg_miss_latency::total 96309.383079                       # average overall miss latency
system.cpu.dcache.overall_avg_miss_latency::.cpu.data 96308.978518                       # average overall miss latency
system.cpu.dcache.overall_avg_miss_latency::total 96308.978518                       # average overall miss latency
system.cpu.dcache.blocked_cycles::no_mshrs            0                       # number of cycles access was blocked
system.cpu.dcache.blocked_cycles::no_targets            0                       # number of cycles access was blocked
system.cpu.dcache.blocked::no_mshrs                 0                       # number of cycles access was blocked
system.cpu.dcache.blocked::no_targets               0                       # number of cycles access was blocked
system.cpu.dcache.avg_blocked_cycles::no_mshrs          nan                       # average number of cycles each access was blocked
system.cpu.dcache.avg_blocked_cycles::no_targets          nan                       # average number of cycles each access was blocked
system.cpu.dcache.writebacks::.writebacks      2975185                       # number of writebacks
system.cpu.dcache.writebacks::total           2975185                       # number of writebacks
system.cpu.dcache.demand_mshr_hits::.cpu.data      2975632                       # number of demand (read+write) MSHR hits
system.cpu.dcache.demand_mshr_hits::total      2975632                       # number of demand (read+write) MSHR hits
system.cpu.dcache.overall_mshr_hits::.cpu.data      2975632                       # number of overall MSHR hits
system.cpu.dcache.overall_mshr_hits::total      2975632                       # number of overall MSHR hits
system.cpu.dcache.demand_mshr_misses::.cpu.data      2975815                       # number of demand (read+write) MSHR misses
system.cpu.dcache.demand_mshr_misses::total      2975815                       # number of demand (read+write) MSHR misses
system.cpu.dcache.overall_mshr_misses::.cpu.data      2975840                       # number of overall MSHR misses
system.cpu.dcache.overall_mshr_misses::total      2975840                       # number of overall MSHR misses
system.cpu.dcache.demand_mshr_miss_latency::.cpu.data 297906142000                       # number of demand (read+write) MSHR miss cycles
system.cpu.dcache.demand_mshr_miss_latency::total 297906142000                       # number of demand (read+write) MSHR miss cycles
system.cpu.dcache.overall_mshr_miss_latency::.cpu.data 297908717000                       # number of overall MSHR miss cycles
system.cpu.dcache.overall_mshr_miss_latency::total 297908717000                       # number of overall MSHR miss cycles
system.cpu.dcache.demand_mshr_miss_rate::.cpu.data     0.060972                       # mshr miss rate for demand accesses
system.cpu.dcache.demand_mshr_miss_rate::total     0.060972                       # mshr miss rate for demand accesses
system.cpu.dcache.overall_mshr_miss_rate::.cpu.data     0.060972                       # mshr miss rate for overall accesses
system.cpu.dcache.overall_mshr_miss_rate::total     0.060972                       # mshr miss rate for overall accesses
system.cpu.dcache.demand_avg_mshr_miss_latency::.cpu.data 100109.093475                       # average overall mshr miss latency
system.cpu.dcache.demand_avg_mshr_miss_latency::total 100109.093475                       # average overall mshr miss latency
system.cpu.dcache.overall_avg_mshr_miss_latency::.cpu.data 100109.117762                       # average overall mshr miss latency
system.cpu.dcache.overall_avg_mshr_miss_latency::total 100109.117762                       # average overall mshr miss latency
system.cpu.dcache.replacements                2975328                       # number of replacements
system.cpu.dcache.ReadReq_hits::.cpu.data     35710768                       # number of ReadReq hits
system.cpu.dcache.ReadReq_hits::total        35710768                       # number of ReadReq hits
system.cpu.dcache.ReadReq_misses::.cpu.data          154                       # number of ReadReq misses
system.cpu.dcache.ReadReq_misses::total           154                       # number of ReadReq misses
system.cpu.dcache.ReadReq_miss_latency::.cpu.data     15033000                       # number of ReadReq miss cycles
system.cpu.dcache.ReadReq_miss_latency::total     15033000                       # number of ReadReq miss cycles
system.cpu.dcache.ReadReq_accesses::.cpu.data     35710922                       # number of ReadReq accesses(hits+misses)
system.cpu.dcache.ReadReq_accesses::total     35710922                       # number of ReadReq accesses(hits+misses)
system.cpu.dcache.ReadReq_miss_rate::.cpu.data     0.000004                       # miss rate for ReadReq accesses
system.cpu.dcache.ReadReq_miss_rate::total     0.000004                       # miss rate for ReadReq accesses
system.cpu.dcache.ReadReq_avg_miss_latency::.cpu.data 97616.883117                       # average ReadReq miss latency
system.cpu.dcache.ReadReq_avg_miss_latency::total 97616.883117                       # average ReadReq miss latency
system.cpu.dcache.ReadReq_mshr_hits::.cpu.data            7                       # number of ReadReq MSHR hits
system.cpu.dcache.ReadReq_mshr_hits::total            7                       # number of ReadReq MSHR hits
system.cpu.dcache.ReadReq_mshr_misses::.cpu.data          147                       # number of ReadReq MSHR misses
system.cpu.dcache.ReadReq_mshr_misses::total          147                       # number of ReadReq MSHR misses
system.cpu.dcache.ReadReq_mshr_miss_latency::.cpu.data     14156000                       # number of ReadReq MSHR miss cycles
system.cpu.dcache.ReadReq_mshr_miss_latency::total     14156000                       # number of ReadReq MSHR miss cycles
system.cpu.dcache.ReadReq_mshr_miss_rate::.cpu.data     0.000004                       # mshr miss rate for ReadReq accesses
system.cpu.dcache.ReadReq_mshr_miss_rate::total     0.000004                       # mshr miss rate for ReadReq accesses
system.cpu.dcache.ReadReq_avg_mshr_miss_latency::.cpu.data 96299.319728                       # average ReadReq mshr miss latency
system.cpu.dcache.ReadReq_avg_mshr_miss_latency::total 96299.319728                       # average ReadReq mshr miss latency
system.cpu.dcache.WriteReq_hits::.cpu.data      7144262                       # number of WriteReq hits
system.cpu.dcache.WriteReq_hits::total        7144262                       # number of WriteReq hits
system.cpu.dcache.WriteReq_misses::.cpu.data      5951293                       # number of WriteReq misses
system.cpu.dcache.WriteReq_misses::total      5951293                       # number of WriteReq misses
system.cpu.dcache.WriteReq_miss_latency::.cpu.data 573165156000                       # number of WriteReq miss cycles
system.cpu.dcache.WriteReq_miss_latency::total 573165156000                       # number of WriteReq miss cycles
system.cpu.dcache.WriteReq_accesses::.cpu.data     13095555                       # number of WriteReq accesses(hits+misses)
system.cpu.dcache.WriteReq_accesses::total     13095555                       # number of WriteReq accesses(hits+misses)
system.cpu.dcache.WriteReq_miss_rate::.cpu.data     0.454451                       # miss rate for WriteReq accesses
system.cpu.dcache.WriteReq_miss_rate::total     0.454451                       # miss rate for WriteReq accesses
system.cpu.dcache.WriteReq_avg_miss_latency::.cpu.data 96309.349246                       # average WriteReq miss latency
system.cpu.dcache.WriteReq_avg_miss_latency::total 96309.349246                       # average WriteReq miss latency
system.cpu.dcache.WriteReq_mshr_hits::.cpu.data      2975625                       # number of WriteReq MSHR hits
system.cpu.dcache.WriteReq_mshr_hits::total      2975625                       # number of WriteReq MSHR hits
system.cpu.dcache.WriteReq_mshr_misses::.cpu.data      2975668                       # number of WriteReq MSHR misses
system.cpu.dcache.WriteReq_mshr_misses::total      2975668                       # number of WriteReq MSHR misses
system.cpu.dcache.WriteReq_mshr_miss_latency::.cpu.data 297891986000                       # number of WriteReq MSHR miss cycles
system.cpu.dcache.WriteReq_mshr_miss_latency::total 297891986000                       # number of WriteReq MSHR miss cycles
system.cpu.dcache.WriteReq_mshr_miss_rate::.cpu.data     0.227227                       # mshr miss rate for WriteReq accesses
system.cpu.dcache.WriteReq_mshr_miss_rate::total     0.227227                       # mshr miss rate for WriteReq accesses
system.cpu.dcache.WriteReq_avg_mshr_miss_latency::.cpu.data 100109.281681                       # average WriteReq mshr miss latency
system.cpu.dcache.WriteReq_avg_mshr_miss_latency::total 100109.281681                       # average WriteReq mshr miss latency
system.cpu.dcache.SoftPFReq_hits::.cpu.data           27                       # number of SoftPFReq hits
system.cpu.dcache.SoftPFReq_hits::total            27                       # number of SoftPFReq hits
system.cpu.dcache.SoftPFReq_misses::.cpu.data           25                       # number of SoftPFReq misses
system.cpu.dcache.SoftPFReq_misses::total           25                       # number of SoftPFReq misses
system.cpu.dcache.SoftPFReq_accesses::.cpu.data           52                       # number of SoftPFReq accesses(hits+misses)
system.cpu.dcache.SoftPFReq_accesses::total           52                       # number of SoftPFReq accesses(hits+misses)
system.cpu.dcache.SoftPFReq_miss_rate::.cpu.data     0.480769                       # miss rate for SoftPFReq accesses
system.cpu.dcache.SoftPFReq_miss_rate::total     0.480769                       # miss rate for SoftPFReq accesses
system.cpu.dcache.SoftPFReq_mshr_misses::.cpu.data           25                       # number of SoftPFReq MSHR misses
system.cpu.dcache.SoftPFReq_mshr_misses::total           25                       # number of SoftPFReq MSHR misses
system.cpu.dcache.SoftPFReq_mshr_miss_latency::.cpu.data      2575000                       # number of SoftPFReq MSHR miss cycles
system.cpu.dcache.SoftPFReq_mshr_miss_latency::total      2575000                       # number of SoftPFReq MSHR miss cycles
system.cpu.dcache.SoftPFReq_mshr_miss_rate::.cpu.data     0.480769                       # mshr miss rate for SoftPFReq accesses
system.cpu.dcache.SoftPFReq_mshr_miss_rate::total     0.480769                       # mshr miss rate for SoftPFReq accesses
system.cpu.dcache.SoftPFReq_avg_mshr_miss_latency::.cpu.data       103000                       # average SoftPFReq mshr miss latency
system.cpu.dcache.SoftPFReq_avg_mshr_miss_latency::total       103000                       # average SoftPFReq mshr miss latency
system.cpu.dcache.LoadLockedReq_hits::.cpu.data           13                       # number of LoadLockedReq hits
system.cpu.dcache.LoadLockedReq_hits::total           13                       # number of LoadLockedReq hits
system.cpu.dcache.LoadLockedReq_misses::.cpu.data            1                       # number of LoadLockedReq misses
system.cpu.dcache.LoadLockedReq_misses::total            1                       # number of LoadLockedReq misses
system.cpu.dcache.LoadLockedReq_miss_latency::.cpu.data        95000                       # number of LoadLockedReq miss cycles
system.cpu.dcache.LoadLockedReq_miss_latency::total        95000                       # number of LoadLockedReq miss cycles
system.cpu.dcache.LoadLockedReq_accesses::.cpu.data           14                       # number of LoadLockedReq accesses(hits+misses)
system.cpu.dcache.LoadLockedReq_accesses::total           14                       # number of LoadLockedReq accesses(hits+misses)
system.cpu.dcache.LoadLockedReq_miss_rate::.cpu.data     0.071429                       # miss rate for LoadLockedReq accesses
system.cpu.dcache.LoadLockedReq_miss_rate::total     0.071429                       # miss rate for LoadLockedReq accesses
system.cpu.dcache.LoadLockedReq_avg_miss_latency::.cpu.data        95000                       # average LoadLockedReq miss latency
system.cpu.dcache.LoadLockedReq_avg_miss_latency::total        95000                       # average LoadLockedReq miss latency
system.cpu.dcache.LoadLockedReq_mshr_misses::.cpu.data            1                       # number of LoadLockedReq MSHR misses
system.cpu.dcache.LoadLockedReq_mshr_misses::total            1                       # number of LoadLockedReq MSHR misses
system.cpu.dcache.LoadLockedReq_mshr_miss_latency::.cpu.data        93000                       # number of LoadLockedReq MSHR miss cycles
system.cpu.dcache.LoadLockedReq_mshr_miss_latency::total        93000                       # number of LoadLockedReq MSHR miss cycles
system.cpu.dcache.LoadLockedReq_mshr_miss_rate::.cpu.data     0.071429                       # mshr miss rate for LoadLockedReq accesses
system.cpu.dcache.LoadLockedReq_mshr_miss_rate::total     0.071429                       # mshr miss rate for LoadLockedReq accesses
system.cpu.dcache.LoadLockedReq_avg_mshr_miss_latency::.cpu.data        93000                       # average LoadLockedReq mshr miss latency
system.cpu.dcache.LoadLockedReq_avg_mshr_miss_latency::total        93000                       # average LoadLockedReq mshr miss latency
system.cpu.dcache.StoreCondReq_hits::.cpu.data           14                       # number of StoreCondReq hits
system.cpu.dcache.StoreCondReq_hits::total           14                       # number of StoreCondReq hits
system.cpu.dcache.StoreCondReq_accesses::.cpu.data           14                       # number of StoreCondReq accesses(hits+misses)
system.cpu.dcache.StoreCondReq_accesses::total           14                       # number of StoreCondReq accesses(hits+misses)
system.cpu.dcache.tags.pwrStateResidencyTicks::UNDEFINED 392024781000                       # Cumulative time (in ticks) in various power states
system.cpu.dcache.tags.tagsinuse           511.879612                       # Cycle average of tags in use
system.cpu.dcache.tags.total_refs            45830924                       # Total number of references to valid blocks.
system.cpu.dcache.tags.sampled_refs           2975840                       # Sample count of references to valid blocks.
system.cpu.dcache.tags.avg_refs             15.401004                       # Average number of references to valid blocks.
system.cpu.dcache.tags.warmup_cycle            240000                       # Cycle when the warmup percentage was hit.
system.cpu.dcache.tags.occ_blocks::.cpu.data   511.879612                       # Average occupied blocks per requestor
system.cpu.dcache.tags.occ_percent::.cpu.data     0.999765                       # Average percentage of cache occupancy
system.cpu.dcache.tags.occ_percent::total     0.999765                       # Average percentage of cache occupancy
system.cpu.dcache.tags.occ_task_id_blocks::1024          512                       # Occupied blocks per task id
system.cpu.dcache.tags.age_task_id_blocks_1024::0           77                       # Occupied blocks per task id
system.cpu.dcache.tags.age_task_id_blocks_1024::1          432                       # Occupied blocks per task id
system.cpu.dcache.tags.age_task_id_blocks_1024::4            3                       # Occupied blocks per task id
system.cpu.dcache.tags.occ_task_id_percent::1024            1                       # Percentage of cache occupancy per task id
system.cpu.dcache.tags.tag_accesses         100588954                       # Number of tag accesses
system.cpu.dcache.tags.data_accesses        100588954                       # Number of data accesses
system.cpu.itb.walker.pwrStateResidencyTicks::UNDEFINED 392024781000                       # Cumulative time (in ticks) in various power states
system.cpu.itb.stage2_mmu.stage2_tlb.walker.pwrStateResidencyTicks::UNDEFINED 392024781000                       # Cumulative time (in ticks) in various power states

---------- End Simulation Statistics   ----------
