
---------- Begin Simulation Statistics ----------
final_tick                               164052113000                       # Number of ticks from beginning of simulation (restored from checkpoints and never reset)
host_inst_rate                                 294160                       # Simulator instruction rate (inst/s)
host_mem_usage                                 717228                       # Number of bytes of host memory used
host_op_rate                                   294747                       # Simulator op (including micro ops) rate (op/s)
host_seconds                                   339.95                       # Real time elapsed on the host
host_tick_rate                              482575187                       # Simulator tick rate (ticks/s)
sim_freq                                 1000000000000                       # Frequency of simulated ticks
sim_insts                                   100000001                       # Number of instructions simulated
sim_ops                                     100199569                       # Number of ops (including micro ops) simulated
sim_seconds                                  0.164052                       # Number of seconds simulated
sim_ticks                                164052113000                       # Number of ticks simulated
system.cpu.branchPred.BTBCorrect                    0                       # Number of correct BTB predictions (this stat may not work properly.
system.cpu.branchPred.BTBHitPct             99.568711                       # BTB Hit Percentage
system.cpu.branchPred.BTBHits                 2104085                       # Number of BTB hits
system.cpu.branchPred.BTBLookups              2113199                       # Number of BTB lookups
system.cpu.branchPred.RASInCorrect                  6                       # Number of incorrect RAS predictions.
system.cpu.branchPred.condIncorrect             83520                       # Number of conditional branches incorrect
system.cpu.branchPred.condPredicted           3635507                       # Number of conditional branches predicted
system.cpu.branchPred.indirectHits                297                       # Number of indirect target hits.
system.cpu.branchPred.indirectLookups             792                       # Number of indirect predictor lookups.
system.cpu.branchPred.indirectMisses              495                       # Number of indirect misses.
system.cpu.branchPred.lookups                 4389805                       # Number of BP lookups
system.cpu.branchPred.usedRAS                   66027                       # Number of times the RAS was used to get a target.
system.cpu.branchPredindirectMispredicted          168                       # Number of mispredicted indirect branches.
system.cpu.committedInsts                   100000001                       # Number of instructions committed
system.cpu.committedOps                     100199569                       # Number of ops (including micro ops) committed
system.cpu.cpi                               1.640521                       # CPI: cycles per instruction
system.cpu.discardedOps                        196967                       # Number of ops (including micro ops) which were discarded before commit
system.cpu.dtb.accesses                             0                       # DTB accesses
system.cpu.dtb.align_faults                         0                       # Number of TLB faults due to alignment restrictions
system.cpu.dtb.domain_faults                        0                       # Number of TLB faults due to domain restrictions
system.cpu.dtb.flush_entries                        0                       # Number of entries that have been flushed from TLB
system.cpu.dtb.flush_tlb                            0                       # Number of times complete TLB was flushed
system.cpu.dtb.flush_tlb_asid                       0                       # Number of times TLB was flushed by ASID
system.cpu.dtb.flush_tlb_mva                        0                       # Number of times TLB was flushed by MVA
system.cpu.dtb.flush_tlb_mva_asid                   0                       # Number of times TLB was flushed by MVA & ASID
system.cpu.dtb.hits                                 0                       # DTB hits
system.cpu.dtb.inst_accesses                        0                       # ITB inst accesses
system.cpu.dtb.inst_hits                            0                       # ITB inst hits
system.cpu.dtb.inst_misses                          0                       # ITB inst misses
system.cpu.dtb.misses                               0                       # DTB misses
system.cpu.dtb.perms_faults                         0                       # Number of TLB faults due to permissions restrictions
system.cpu.dtb.prefetch_faults                      0                       # Number of TLB faults due to prefetch
system.cpu.dtb.read_accesses                        0                       # DTB read accesses
system.cpu.dtb.read_hits                            0                       # DTB read hits
system.cpu.dtb.read_misses                          0                       # DTB read misses
system.cpu.dtb.stage2_mmu.stage2_tlb.accesses            0                       # DTB accesses
system.cpu.dtb.stage2_mmu.stage2_tlb.align_faults            0                       # Number of TLB faults due to alignment restrictions
system.cpu.dtb.stage2_mmu.stage2_tlb.domain_faults            0                       # Number of TLB faults due to domain restrictions
system.cpu.dtb.stage2_mmu.stage2_tlb.flush_entries            0                       # Number of entries that have been flushed from TLB
system.cpu.dtb.stage2_mmu.stage2_tlb.flush_tlb            0                       # Number of times complete TLB was flushed
system.cpu.dtb.stage2_mmu.stage2_tlb.flush_tlb_asid            0                       # Number of times TLB was flushed by ASID
system.cpu.dtb.stage2_mmu.stage2_tlb.flush_tlb_mva            0                       # Number of times TLB was flushed by MVA
system.cpu.dtb.stage2_mmu.stage2_tlb.flush_tlb_mva_asid            0                       # Number of times TLB was flushed by MVA & ASID
system.cpu.dtb.stage2_mmu.stage2_tlb.hits            0                       # DTB hits
system.cpu.dtb.stage2_mmu.stage2_tlb.inst_accesses            0                       # ITB inst accesses
system.cpu.dtb.stage2_mmu.stage2_tlb.inst_hits            0                       # ITB inst hits
system.cpu.dtb.stage2_mmu.stage2_tlb.inst_misses            0                       # ITB inst misses
system.cpu.dtb.stage2_mmu.stage2_tlb.misses            0                       # DTB misses
system.cpu.dtb.stage2_mmu.stage2_tlb.perms_faults            0                       # Number of TLB faults due to permissions restrictions
system.cpu.dtb.stage2_mmu.stage2_tlb.prefetch_faults            0                       # Number of TLB faults due to prefetch
system.cpu.dtb.stage2_mmu.stage2_tlb.read_accesses            0                       # DTB read accesses
system.cpu.dtb.stage2_mmu.stage2_tlb.read_hits            0                       # DTB read hits
system.cpu.dtb.stage2_mmu.stage2_tlb.read_misses            0                       # DTB read misses
system.cpu.dtb.stage2_mmu.stage2_tlb.walker.walkRequestOrigin_Requested::Data            0                       # Table walker requests started/completed, data/inst
system.cpu.dtb.stage2_mmu.stage2_tlb.walker.walkRequestOrigin_Requested::Inst            0                       # Table walker requests started/completed, data/inst
system.cpu.dtb.stage2_mmu.stage2_tlb.walker.walkRequestOrigin_Requested::total            0                       # Table walker requests started/completed, data/inst
system.cpu.dtb.stage2_mmu.stage2_tlb.walker.walkRequestOrigin_Completed::Data            0                       # Table walker requests started/completed, data/inst
system.cpu.dtb.stage2_mmu.stage2_tlb.walker.walkRequestOrigin_Completed::Inst            0                       # Table walker requests started/completed, data/inst
system.cpu.dtb.stage2_mmu.stage2_tlb.walker.walkRequestOrigin_Completed::total            0                       # Table walker requests started/completed, data/inst
system.cpu.dtb.stage2_mmu.stage2_tlb.walker.walkRequestOrigin::total            0                       # Table walker requests started/completed, data/inst
system.cpu.dtb.stage2_mmu.stage2_tlb.walker.walks            0                       # Table walker walks requested
system.cpu.dtb.stage2_mmu.stage2_tlb.write_accesses            0                       # DTB write accesses
system.cpu.dtb.stage2_mmu.stage2_tlb.write_hits            0                       # DTB write hits
system.cpu.dtb.stage2_mmu.stage2_tlb.write_misses            0                       # DTB write misses
system.cpu.dtb.walker.walkRequestOrigin_Requested::Data            0                       # Table walker requests started/completed, data/inst
system.cpu.dtb.walker.walkRequestOrigin_Requested::Inst            0                       # Table walker requests started/completed, data/inst
system.cpu.dtb.walker.walkRequestOrigin_Requested::total            0                       # Table walker requests started/completed, data/inst
system.cpu.dtb.walker.walkRequestOrigin_Completed::Data            0                       # Table walker requests started/completed, data/inst
system.cpu.dtb.walker.walkRequestOrigin_Completed::Inst            0                       # Table walker requests started/completed, data/inst
system.cpu.dtb.walker.walkRequestOrigin_Completed::total            0                       # Table walker requests started/completed, data/inst
system.cpu.dtb.walker.walkRequestOrigin::total            0                       # Table walker requests started/completed, data/inst
system.cpu.dtb.walker.walks                         0                       # Table walker walks requested
system.cpu.dtb.write_accesses                       0                       # DTB write accesses
system.cpu.dtb.write_hits                           0                       # DTB write hits
system.cpu.dtb.write_misses                         0                       # DTB write misses
system.cpu.fetch2.amo_instructions                  0                       # Number of memory atomic instructions successfully decoded
system.cpu.fetch2.fp_instructions                   0                       # Number of floating point instructions successfully decoded
system.cpu.fetch2.int_instructions           42628152                       # Number of integer instructions successfully decoded
system.cpu.fetch2.load_instructions          43485180                       # Number of memory load instructions successfully decoded
system.cpu.fetch2.store_instructions         11033538                       # Number of memory store instructions successfully decoded
system.cpu.fetch2.vec_instructions                  0                       # Number of SIMD instructions successfully decoded
system.cpu.idleCycles                        31058338                       # Total number of cycles that the object has spent stopped
system.cpu.ipc                               0.609562                       # IPC: instructions per cycle
system.cpu.itb.accesses                             0                       # DTB accesses
system.cpu.itb.align_faults                         0                       # Number of TLB faults due to alignment restrictions
system.cpu.itb.domain_faults                        0                       # Number of TLB faults due to domain restrictions
system.cpu.itb.flush_entries                        0                       # Number of entries that have been flushed from TLB
system.cpu.itb.flush_tlb                            0                       # Number of times complete TLB was flushed
system.cpu.itb.flush_tlb_asid                       0                       # Number of times TLB was flushed by ASID
system.cpu.itb.flush_tlb_mva                        0                       # Number of times TLB was flushed by MVA
system.cpu.itb.flush_tlb_mva_asid                   0                       # Number of times TLB was flushed by MVA & ASID
system.cpu.itb.hits                                 0                       # DTB hits
system.cpu.itb.inst_accesses                        0                       # ITB inst accesses
system.cpu.itb.inst_hits                            0                       # ITB inst hits
system.cpu.itb.inst_misses                          0                       # ITB inst misses
system.cpu.itb.misses                               0                       # DTB misses
system.cpu.itb.perms_faults                         0                       # Number of TLB faults due to permissions restrictions
system.cpu.itb.prefetch_faults                      0                       # Number of TLB faults due to prefetch
system.cpu.itb.read_accesses                        0                       # DTB read accesses
system.cpu.itb.read_hits                            0                       # DTB read hits
system.cpu.itb.read_misses                          0                       # DTB read misses
system.cpu.itb.stage2_mmu.stage2_tlb.accesses            0                       # DTB accesses
system.cpu.itb.stage2_mmu.stage2_tlb.align_faults            0                       # Number of TLB faults due to alignment restrictions
system.cpu.itb.stage2_mmu.stage2_tlb.domain_faults            0                       # Number of TLB faults due to domain restrictions
system.cpu.itb.stage2_mmu.stage2_tlb.flush_entries            0                       # Number of entries that have been flushed from TLB
system.cpu.itb.stage2_mmu.stage2_tlb.flush_tlb            0                       # Number of times complete TLB was flushed
system.cpu.itb.stage2_mmu.stage2_tlb.flush_tlb_asid            0                       # Number of times TLB was flushed by ASID
system.cpu.itb.stage2_mmu.stage2_tlb.flush_tlb_mva            0                       # Number of times TLB was flushed by MVA
system.cpu.itb.stage2_mmu.stage2_tlb.flush_tlb_mva_asid            0                       # Number of times TLB was flushed by MVA & ASID
system.cpu.itb.stage2_mmu.stage2_tlb.hits            0                       # DTB hits
system.cpu.itb.stage2_mmu.stage2_tlb.inst_accesses            0                       # ITB inst accesses
system.cpu.itb.stage2_mmu.stage2_tlb.inst_hits            0                       # ITB inst hits
system.cpu.itb.stage2_mmu.stage2_tlb.inst_misses            0                       # ITB inst misses
system.cpu.itb.stage2_mmu.stage2_tlb.misses            0                       # DTB misses
system.cpu.itb.stage2_mmu.stage2_tlb.perms_faults            0                       # Number of TLB faults due to permissions restrictions
system.cpu.itb.stage2_mmu.stage2_tlb.prefetch_faults            0                       # Number of TLB faults due to prefetch
system.cpu.itb.stage2_mmu.stage2_tlb.read_accesses            0                       # DTB read accesses
system.cpu.itb.stage2_mmu.stage2_tlb.read_hits            0                       # DTB read hits
system.cpu.itb.stage2_mmu.stage2_tlb.read_misses            0                       # DTB read misses
system.cpu.itb.stage2_mmu.stage2_tlb.walker.walkRequestOrigin_Requested::Data            0                       # Table walker requests started/completed, data/inst
system.cpu.itb.stage2_mmu.stage2_tlb.walker.walkRequestOrigin_Requested::Inst            0                       # Table walker requests started/completed, data/inst
system.cpu.itb.stage2_mmu.stage2_tlb.walker.walkRequestOrigin_Requested::total            0                       # Table walker requests started/completed, data/inst
system.cpu.itb.stage2_mmu.stage2_tlb.walker.walkRequestOrigin_Completed::Data            0                       # Table walker requests started/completed, data/inst
system.cpu.itb.stage2_mmu.stage2_tlb.walker.walkRequestOrigin_Completed::Inst            0                       # Table walker requests started/completed, data/inst
system.cpu.itb.stage2_mmu.stage2_tlb.walker.walkRequestOrigin_Completed::total            0                       # Table walker requests started/completed, data/inst
system.cpu.itb.stage2_mmu.stage2_tlb.walker.walkRequestOrigin::total            0                       # Table walker requests started/completed, data/inst
system.cpu.itb.stage2_mmu.stage2_tlb.walker.walks            0                       # Table walker walks requested
system.cpu.itb.stage2_mmu.stage2_tlb.write_accesses            0                       # DTB write accesses
system.cpu.itb.stage2_mmu.stage2_tlb.write_hits            0                       # DTB write hits
system.cpu.itb.stage2_mmu.stage2_tlb.write_misses            0                       # DTB write misses
system.cpu.itb.walker.walkRequestOrigin_Requested::Data            0                       # Table walker requests started/completed, data/inst
system.cpu.itb.walker.walkRequestOrigin_Requested::Inst            0                       # Table walker requests started/completed, data/inst
system.cpu.itb.walker.walkRequestOrigin_Requested::total            0                       # Table walker requests started/completed, data/inst
system.cpu.itb.walker.walkRequestOrigin_Completed::Data            0                       # Table walker requests started/completed, data/inst
system.cpu.itb.walker.walkRequestOrigin_Completed::Inst            0                       # Table walker requests started/completed, data/inst
system.cpu.itb.walker.walkRequestOrigin_Completed::total            0                       # Table walker requests started/completed, data/inst
system.cpu.itb.walker.walkRequestOrigin::total            0                       # Table walker requests started/completed, data/inst
system.cpu.itb.walker.walks                         0                       # Table walker walks requested
system.cpu.itb.write_accesses                       0                       # DTB write accesses
system.cpu.itb.write_hits                           0                       # DTB write hits
system.cpu.itb.write_misses                         0                       # DTB write misses
system.cpu.numCycles                        164052113                       # number of cpu cycles simulated
system.cpu.numFetchSuspends                         0                       # Number of times Execute suspended instruction fetching
system.cpu.numWorkItemsCompleted                    0                       # number of work items this cpu completed
system.cpu.numWorkItemsStarted                      0                       # number of work items this cpu started
system.cpu.op_class_0::No_OpClass                   0      0.00%      0.00% # Class of committed instruction
system.cpu.op_class_0::IntAlu                46443154     46.35%     46.35% # Class of committed instruction
system.cpu.op_class_0::IntMult                  20720      0.02%     46.37% # Class of committed instruction
system.cpu.op_class_0::IntDiv                       0      0.00%     46.37% # Class of committed instruction
system.cpu.op_class_0::FloatAdd                     0      0.00%     46.37% # Class of committed instruction
system.cpu.op_class_0::FloatCmp                     0      0.00%     46.37% # Class of committed instruction
system.cpu.op_class_0::FloatCvt                     0      0.00%     46.37% # Class of committed instruction
system.cpu.op_class_0::FloatMult                    0      0.00%     46.37% # Class of committed instruction
system.cpu.op_class_0::FloatMultAcc                 0      0.00%     46.37% # Class of committed instruction
system.cpu.op_class_0::FloatDiv                     0      0.00%     46.37% # Class of committed instruction
system.cpu.op_class_0::FloatMisc                    0      0.00%     46.37% # Class of committed instruction
system.cpu.op_class_0::FloatSqrt                    0      0.00%     46.37% # Class of committed instruction
system.cpu.op_class_0::SimdAdd                      0      0.00%     46.37% # Class of committed instruction
system.cpu.op_class_0::SimdAddAcc                   0      0.00%     46.37% # Class of committed instruction
system.cpu.op_class_0::SimdAlu                      0      0.00%     46.37% # Class of committed instruction
system.cpu.op_class_0::SimdCmp                      0      0.00%     46.37% # Class of committed instruction
system.cpu.op_class_0::SimdCvt                      0      0.00%     46.37% # Class of committed instruction
system.cpu.op_class_0::SimdMisc                     0      0.00%     46.37% # Class of committed instruction
system.cpu.op_class_0::SimdMult                     0      0.00%     46.37% # Class of committed instruction
system.cpu.op_class_0::SimdMultAcc                  0      0.00%     46.37% # Class of committed instruction
system.cpu.op_class_0::SimdShift                    0      0.00%     46.37% # Class of committed instruction
system.cpu.op_class_0::SimdShiftAcc                 0      0.00%     46.37% # Class of committed instruction
system.cpu.op_class_0::SimdDiv                      0      0.00%     46.37% # Class of committed instruction
system.cpu.op_class_0::SimdSqrt                     0      0.00%     46.37% # Class of committed instruction
system.cpu.op_class_0::SimdFloatAdd                 0      0.00%     46.37% # Class of committed instruction
system.cpu.op_class_0::SimdFloatAlu                 0      0.00%     46.37% # Class of committed instruction
system.cpu.op_class_0::SimdFloatCmp                 0      0.00%     46.37% # Class of committed instruction
system.cpu.op_class_0::SimdFloatCvt                 0      0.00%     46.37% # Class of committed instruction
system.cpu.op_class_0::SimdFloatDiv                 0      0.00%     46.37% # Class of committed instruction
system.cpu.op_class_0::SimdFloatMisc                1      0.00%     46.37% # Class of committed instruction
system.cpu.op_class_0::SimdFloatMult                0      0.00%     46.37% # Class of committed instruction
system.cpu.op_class_0::SimdFloatMultAcc             0      0.00%     46.37% # Class of committed instruction
system.cpu.op_class_0::SimdFloatSqrt                0      0.00%     46.37% # Class of committed instruction
system.cpu.op_class_0::SimdReduceAdd                0      0.00%     46.37% # Class of committed instruction
system.cpu.op_class_0::SimdReduceAlu                0      0.00%     46.37% # Class of committed instruction
system.cpu.op_class_0::SimdReduceCmp                0      0.00%     46.37% # Class of committed instruction
system.cpu.op_class_0::SimdFloatReduceAdd            0      0.00%     46.37% # Class of committed instruction
system.cpu.op_class_0::SimdFloatReduceCmp            0      0.00%     46.37% # Class of committed instruction
system.cpu.op_class_0::SimdAes                      0      0.00%     46.37% # Class of committed instruction
system.cpu.op_class_0::SimdAesMix                   0      0.00%     46.37% # Class of committed instruction
system.cpu.op_class_0::SimdSha1Hash                 0      0.00%     46.37% # Class of committed instruction
system.cpu.op_class_0::SimdSha1Hash2                0      0.00%     46.37% # Class of committed instruction
system.cpu.op_class_0::SimdSha256Hash               0      0.00%     46.37% # Class of committed instruction
system.cpu.op_class_0::SimdSha256Hash2              0      0.00%     46.37% # Class of committed instruction
system.cpu.op_class_0::SimdShaSigma2                0      0.00%     46.37% # Class of committed instruction
system.cpu.op_class_0::SimdShaSigma3                0      0.00%     46.37% # Class of committed instruction
system.cpu.op_class_0::SimdPredAlu                  0      0.00%     46.37% # Class of committed instruction
system.cpu.op_class_0::MemRead               42756988     42.67%     89.04% # Class of committed instruction
system.cpu.op_class_0::MemWrite              10978706     10.96%    100.00% # Class of committed instruction
system.cpu.op_class_0::FloatMemRead                 0      0.00%    100.00% # Class of committed instruction
system.cpu.op_class_0::FloatMemWrite                0      0.00%    100.00% # Class of committed instruction
system.cpu.op_class_0::IprAccess                    0      0.00%    100.00% # Class of committed instruction
system.cpu.op_class_0::InstPrefetch                 0      0.00%    100.00% # Class of committed instruction
system.cpu.op_class_0::total                100199569                       # Class of committed instruction
system.cpu.tickCycles                       132993775                       # Number of cycles that the object actually ticked
system.cpu.workload.numSyscalls                    85                       # Number of system calls
system.membus.snoop_filter.hit_multi_requests            0                       # Number of requests hitting in the snoop filter with multiple (>1) holders of the requested data.
system.membus.snoop_filter.hit_multi_snoops            0                       # Number of snoops hitting in the snoop filter with multiple (>1) holders of the requested data.
system.membus.snoop_filter.hit_single_requests       168028                       # Number of requests hitting in the snoop filter with a single holder of the requested data.
system.membus.snoop_filter.hit_single_snoops            0                       # Number of snoops hitting in the snoop filter with a single holder of the requested data.
system.membus.snoop_filter.tot_requests        369162                       # Total number of requests made to the snoop filter.
system.membus.snoop_filter.tot_snoops               0                       # Total number of snoops made to the snoop filter.
system.tol2bus.snoop_filter.hit_multi_requests          338                       # Number of requests hitting in the snoop filter with multiple (>1) holders of the requested data.
system.tol2bus.snoop_filter.hit_multi_snoops            0                       # Number of snoops hitting in the snoop filter with multiple (>1) holders of the requested data.
system.tol2bus.snoop_filter.hit_single_requests       876764                       # Number of requests hitting in the snoop filter with a single holder of the requested data.
system.tol2bus.snoop_filter.hit_single_snoops          482                       # Number of snoops hitting in the snoop filter with a single holder of the requested data.
system.tol2bus.snoop_filter.tot_requests      1754477                       # Total number of requests made to the snoop filter.
system.tol2bus.snoop_filter.tot_snoops            482                       # Total number of snoops made to the snoop filter.
system.membus.pwrStateResidencyTicks::UNDEFINED 164052113000                       # Cumulative time (in ticks) in various power states
system.membus.trans_dist::ReadResp              64906                       # Transaction distribution
system.membus.trans_dist::WritebackDirty       111224                       # Transaction distribution
system.membus.trans_dist::CleanEvict            56798                       # Transaction distribution
system.membus.trans_dist::ReadExReq            136234                       # Transaction distribution
system.membus.trans_dist::ReadExResp           136234                       # Transaction distribution
system.membus.trans_dist::ReadSharedReq         64906                       # Transaction distribution
system.membus.pkt_count_system.l2.mem_side::system.mem_ctrls.port       570302                       # Packet count per connected master and slave (bytes)
system.membus.pkt_count::total                 570302                       # Packet count per connected master and slave (bytes)
system.membus.pkt_size_system.l2.mem_side::system.mem_ctrls.port     19991296                       # Cumulative packet size per connected master and slave (bytes)
system.membus.pkt_size::total                19991296                       # Cumulative packet size per connected master and slave (bytes)
system.membus.snoops                                0                       # Total snoops (count)
system.membus.snoopTraffic                          0                       # Total snoop traffic (bytes)
system.membus.snoop_fanout::samples            201140                       # Request fanout histogram
system.membus.snoop_fanout::mean                    0                       # Request fanout histogram
system.membus.snoop_fanout::stdev                   0                       # Request fanout histogram
system.membus.snoop_fanout::underflows              0      0.00%      0.00% # Request fanout histogram
system.membus.snoop_fanout::0                  201140    100.00%    100.00% # Request fanout histogram
system.membus.snoop_fanout::1                       0      0.00%    100.00% # Request fanout histogram
system.membus.snoop_fanout::overflows               0      0.00%    100.00% # Request fanout histogram
system.membus.snoop_fanout::min_value               0                       # Request fanout histogram
system.membus.snoop_fanout::max_value               0                       # Request fanout histogram
system.membus.snoop_fanout::total              201140                       # Request fanout histogram
system.membus.respLayer1.occupancy         1087124250                       # Layer occupancy (ticks)
system.membus.respLayer1.utilization              0.7                       # Layer utilization (%)
system.membus.reqLayer0.occupancy           814058000                       # Layer occupancy (ticks)
system.membus.reqLayer0.utilization               0.5                       # Layer utilization (%)
system.tol2bus.pwrStateResidencyTicks::UNDEFINED 164052113000                       # Cumulative time (in ticks) in various power states
system.tol2bus.trans_dist::ReadResp            535891                       # Transaction distribution
system.tol2bus.trans_dist::WritebackDirty       909401                       # Transaction distribution
system.tol2bus.trans_dist::WritebackClean          316                       # Transaction distribution
system.tol2bus.trans_dist::CleanEvict          135549                       # Transaction distribution
system.tol2bus.trans_dist::ReadExReq           341824                       # Transaction distribution
system.tol2bus.trans_dist::ReadExResp          341824                       # Transaction distribution
system.tol2bus.trans_dist::ReadCleanReq           757                       # Transaction distribution
system.tol2bus.trans_dist::ReadSharedReq       535134                       # Transaction distribution
system.tol2bus.pkt_count_system.cpu.icache.mem_side::system.l2.cpu_side         1830                       # Packet count per connected master and slave (bytes)
system.tol2bus.pkt_count_system.cpu.dcache.mem_side::system.l2.cpu_side      2630362                       # Packet count per connected master and slave (bytes)
system.tol2bus.pkt_count::total               2632192                       # Packet count per connected master and slave (bytes)
system.tol2bus.pkt_size_system.cpu.icache.mem_side::system.l2.cpu_side        68672                       # Cumulative packet size per connected master and slave (bytes)
system.tol2bus.pkt_size_system.cpu.dcache.mem_side::system.l2.cpu_side    107208640                       # Cumulative packet size per connected master and slave (bytes)
system.tol2bus.pkt_size::total              107277312                       # Cumulative packet size per connected master and slave (bytes)
system.tol2bus.snoops                          168504                       # Total snoops (count)
system.tol2bus.snoopTraffic                   7118336                       # Total snoop traffic (bytes)
system.tol2bus.snoop_fanout::samples          1046219                       # Request fanout histogram
system.tol2bus.snoop_fanout::mean            0.000786                       # Request fanout histogram
system.tol2bus.snoop_fanout::stdev           0.028019                       # Request fanout histogram
system.tol2bus.snoop_fanout::underflows             0      0.00%      0.00% # Request fanout histogram
system.tol2bus.snoop_fanout::0                1045397     99.92%     99.92% # Request fanout histogram
system.tol2bus.snoop_fanout::1                    822      0.08%    100.00% # Request fanout histogram
system.tol2bus.snoop_fanout::2                      0      0.00%    100.00% # Request fanout histogram
system.tol2bus.snoop_fanout::overflows              0      0.00%    100.00% # Request fanout histogram
system.tol2bus.snoop_fanout::min_value              0                       # Request fanout histogram
system.tol2bus.snoop_fanout::max_value              1                       # Request fanout histogram
system.tol2bus.snoop_fanout::total            1046219                       # Request fanout histogram
system.tol2bus.reqLayer0.occupancy         3351463000                       # Layer occupancy (ticks)
system.tol2bus.reqLayer0.utilization              2.0                       # Layer utilization (%)
system.tol2bus.respLayer1.occupancy        2630878995                       # Layer occupancy (ticks)
system.tol2bus.respLayer1.utilization             1.6                       # Layer utilization (%)
system.tol2bus.respLayer0.occupancy           2271000                       # Layer occupancy (ticks)
system.tol2bus.respLayer0.utilization             0.0                       # Layer utilization (%)
system.voltage_domain.voltage                       1                       # Voltage in Volts
system.clk_domain.clock                          1000                       # Clock period in ticks
system.l2.pwrStateResidencyTicks::UNDEFINED 164052113000                       # Cumulative time (in ticks) in various power states
system.l2.demand_hits::.cpu.inst                   90                       # number of demand (read+write) hits
system.l2.demand_hits::.cpu.data               676480                       # number of demand (read+write) hits
system.l2.demand_hits::total                   676570                       # number of demand (read+write) hits
system.l2.overall_hits::.cpu.inst                  90                       # number of overall hits
system.l2.overall_hits::.cpu.data              676480                       # number of overall hits
system.l2.overall_hits::total                  676570                       # number of overall hits
system.l2.demand_misses::.cpu.inst                667                       # number of demand (read+write) misses
system.l2.demand_misses::.cpu.data             200478                       # number of demand (read+write) misses
system.l2.demand_misses::total                 201145                       # number of demand (read+write) misses
system.l2.overall_misses::.cpu.inst               667                       # number of overall misses
system.l2.overall_misses::.cpu.data            200478                       # number of overall misses
system.l2.overall_misses::total                201145                       # number of overall misses
system.l2.demand_miss_latency::.cpu.inst     66140000                       # number of demand (read+write) miss cycles
system.l2.demand_miss_latency::.cpu.data  20884077000                       # number of demand (read+write) miss cycles
system.l2.demand_miss_latency::total      20950217000                       # number of demand (read+write) miss cycles
system.l2.overall_miss_latency::.cpu.inst     66140000                       # number of overall miss cycles
system.l2.overall_miss_latency::.cpu.data  20884077000                       # number of overall miss cycles
system.l2.overall_miss_latency::total     20950217000                       # number of overall miss cycles
system.l2.demand_accesses::.cpu.inst              757                       # number of demand (read+write) accesses
system.l2.demand_accesses::.cpu.data           876958                       # number of demand (read+write) accesses
system.l2.demand_accesses::total               877715                       # number of demand (read+write) accesses
system.l2.overall_accesses::.cpu.inst             757                       # number of overall (read+write) accesses
system.l2.overall_accesses::.cpu.data          876958                       # number of overall (read+write) accesses
system.l2.overall_accesses::total              877715                       # number of overall (read+write) accesses
system.l2.demand_miss_rate::.cpu.inst        0.881110                       # miss rate for demand accesses
system.l2.demand_miss_rate::.cpu.data        0.228606                       # miss rate for demand accesses
system.l2.demand_miss_rate::total            0.229169                       # miss rate for demand accesses
system.l2.overall_miss_rate::.cpu.inst       0.881110                       # miss rate for overall accesses
system.l2.overall_miss_rate::.cpu.data       0.228606                       # miss rate for overall accesses
system.l2.overall_miss_rate::total           0.229169                       # miss rate for overall accesses
system.l2.demand_avg_miss_latency::.cpu.inst 99160.419790                       # average overall miss latency
system.l2.demand_avg_miss_latency::.cpu.data 104171.415317                       # average overall miss latency
system.l2.demand_avg_miss_latency::total 104154.798777                       # average overall miss latency
system.l2.overall_avg_miss_latency::.cpu.inst 99160.419790                       # average overall miss latency
system.l2.overall_avg_miss_latency::.cpu.data 104171.415317                       # average overall miss latency
system.l2.overall_avg_miss_latency::total 104154.798777                       # average overall miss latency
system.l2.blocked_cycles::no_mshrs                  0                       # number of cycles access was blocked
system.l2.blocked_cycles::no_targets                0                       # number of cycles access was blocked
system.l2.blocked::no_mshrs                         0                       # number of cycles access was blocked
system.l2.blocked::no_targets                       0                       # number of cycles access was blocked
system.l2.avg_blocked_cycles::no_mshrs            nan                       # average number of cycles each access was blocked
system.l2.avg_blocked_cycles::no_targets          nan                       # average number of cycles each access was blocked
system.l2.writebacks::.writebacks              111224                       # number of writebacks
system.l2.writebacks::total                    111224                       # number of writebacks
system.l2.demand_mshr_hits::.cpu.data               5                       # number of demand (read+write) MSHR hits
system.l2.demand_mshr_hits::total                   5                       # number of demand (read+write) MSHR hits
system.l2.overall_mshr_hits::.cpu.data              5                       # number of overall MSHR hits
system.l2.overall_mshr_hits::total                  5                       # number of overall MSHR hits
system.l2.demand_mshr_misses::.cpu.inst           667                       # number of demand (read+write) MSHR misses
system.l2.demand_mshr_misses::.cpu.data        200473                       # number of demand (read+write) MSHR misses
system.l2.demand_mshr_misses::total            201140                       # number of demand (read+write) MSHR misses
system.l2.overall_mshr_misses::.cpu.inst          667                       # number of overall MSHR misses
system.l2.overall_mshr_misses::.cpu.data       200473                       # number of overall MSHR misses
system.l2.overall_mshr_misses::total           201140                       # number of overall MSHR misses
system.l2.demand_mshr_miss_latency::.cpu.inst     52800000                       # number of demand (read+write) MSHR miss cycles
system.l2.demand_mshr_miss_latency::.cpu.data  16874206000                       # number of demand (read+write) MSHR miss cycles
system.l2.demand_mshr_miss_latency::total  16927006000                       # number of demand (read+write) MSHR miss cycles
system.l2.overall_mshr_miss_latency::.cpu.inst     52800000                       # number of overall MSHR miss cycles
system.l2.overall_mshr_miss_latency::.cpu.data  16874206000                       # number of overall MSHR miss cycles
system.l2.overall_mshr_miss_latency::total  16927006000                       # number of overall MSHR miss cycles
system.l2.demand_mshr_miss_rate::.cpu.inst     0.881110                       # mshr miss rate for demand accesses
system.l2.demand_mshr_miss_rate::.cpu.data     0.228600                       # mshr miss rate for demand accesses
system.l2.demand_mshr_miss_rate::total       0.229163                       # mshr miss rate for demand accesses
system.l2.overall_mshr_miss_rate::.cpu.inst     0.881110                       # mshr miss rate for overall accesses
system.l2.overall_mshr_miss_rate::.cpu.data     0.228600                       # mshr miss rate for overall accesses
system.l2.overall_mshr_miss_rate::total      0.229163                       # mshr miss rate for overall accesses
system.l2.demand_avg_mshr_miss_latency::.cpu.inst 79160.419790                       # average overall mshr miss latency
system.l2.demand_avg_mshr_miss_latency::.cpu.data 84171.963307                       # average overall mshr miss latency
system.l2.demand_avg_mshr_miss_latency::total 84155.344536                       # average overall mshr miss latency
system.l2.overall_avg_mshr_miss_latency::.cpu.inst 79160.419790                       # average overall mshr miss latency
system.l2.overall_avg_mshr_miss_latency::.cpu.data 84171.963307                       # average overall mshr miss latency
system.l2.overall_avg_mshr_miss_latency::total 84155.344536                       # average overall mshr miss latency
system.l2.replacements                         168504                       # number of replacements
system.l2.WritebackDirty_hits::.writebacks       798177                       # number of WritebackDirty hits
system.l2.WritebackDirty_hits::total           798177                       # number of WritebackDirty hits
system.l2.WritebackDirty_accesses::.writebacks       798177                       # number of WritebackDirty accesses(hits+misses)
system.l2.WritebackDirty_accesses::total       798177                       # number of WritebackDirty accesses(hits+misses)
system.l2.WritebackClean_hits::.writebacks          313                       # number of WritebackClean hits
system.l2.WritebackClean_hits::total              313                       # number of WritebackClean hits
system.l2.WritebackClean_accesses::.writebacks          313                       # number of WritebackClean accesses(hits+misses)
system.l2.WritebackClean_accesses::total          313                       # number of WritebackClean accesses(hits+misses)
system.l2.ReadExReq_hits::.cpu.data            205590                       # number of ReadExReq hits
system.l2.ReadExReq_hits::total                205590                       # number of ReadExReq hits
system.l2.ReadExReq_misses::.cpu.data          136234                       # number of ReadExReq misses
system.l2.ReadExReq_misses::total              136234                       # number of ReadExReq misses
system.l2.ReadExReq_miss_latency::.cpu.data  14479899000                       # number of ReadExReq miss cycles
system.l2.ReadExReq_miss_latency::total   14479899000                       # number of ReadExReq miss cycles
system.l2.ReadExReq_accesses::.cpu.data        341824                       # number of ReadExReq accesses(hits+misses)
system.l2.ReadExReq_accesses::total            341824                       # number of ReadExReq accesses(hits+misses)
system.l2.ReadExReq_miss_rate::.cpu.data     0.398550                       # miss rate for ReadExReq accesses
system.l2.ReadExReq_miss_rate::total         0.398550                       # miss rate for ReadExReq accesses
system.l2.ReadExReq_avg_miss_latency::.cpu.data 106286.969479                       # average ReadExReq miss latency
system.l2.ReadExReq_avg_miss_latency::total 106286.969479                       # average ReadExReq miss latency
system.l2.ReadExReq_mshr_misses::.cpu.data       136234                       # number of ReadExReq MSHR misses
system.l2.ReadExReq_mshr_misses::total         136234                       # number of ReadExReq MSHR misses
system.l2.ReadExReq_mshr_miss_latency::.cpu.data  11755219000                       # number of ReadExReq MSHR miss cycles
system.l2.ReadExReq_mshr_miss_latency::total  11755219000                       # number of ReadExReq MSHR miss cycles
system.l2.ReadExReq_mshr_miss_rate::.cpu.data     0.398550                       # mshr miss rate for ReadExReq accesses
system.l2.ReadExReq_mshr_miss_rate::total     0.398550                       # mshr miss rate for ReadExReq accesses
system.l2.ReadExReq_avg_mshr_miss_latency::.cpu.data 86286.969479                       # average ReadExReq mshr miss latency
system.l2.ReadExReq_avg_mshr_miss_latency::total 86286.969479                       # average ReadExReq mshr miss latency
system.l2.ReadCleanReq_hits::.cpu.inst             90                       # number of ReadCleanReq hits
system.l2.ReadCleanReq_hits::total                 90                       # number of ReadCleanReq hits
system.l2.ReadCleanReq_misses::.cpu.inst          667                       # number of ReadCleanReq misses
system.l2.ReadCleanReq_misses::total              667                       # number of ReadCleanReq misses
system.l2.ReadCleanReq_miss_latency::.cpu.inst     66140000                       # number of ReadCleanReq miss cycles
system.l2.ReadCleanReq_miss_latency::total     66140000                       # number of ReadCleanReq miss cycles
system.l2.ReadCleanReq_accesses::.cpu.inst          757                       # number of ReadCleanReq accesses(hits+misses)
system.l2.ReadCleanReq_accesses::total            757                       # number of ReadCleanReq accesses(hits+misses)
system.l2.ReadCleanReq_miss_rate::.cpu.inst     0.881110                       # miss rate for ReadCleanReq accesses
system.l2.ReadCleanReq_miss_rate::total      0.881110                       # miss rate for ReadCleanReq accesses
system.l2.ReadCleanReq_avg_miss_latency::.cpu.inst 99160.419790                       # average ReadCleanReq miss latency
system.l2.ReadCleanReq_avg_miss_latency::total 99160.419790                       # average ReadCleanReq miss latency
system.l2.ReadCleanReq_mshr_misses::.cpu.inst          667                       # number of ReadCleanReq MSHR misses
system.l2.ReadCleanReq_mshr_misses::total          667                       # number of ReadCleanReq MSHR misses
system.l2.ReadCleanReq_mshr_miss_latency::.cpu.inst     52800000                       # number of ReadCleanReq MSHR miss cycles
system.l2.ReadCleanReq_mshr_miss_latency::total     52800000                       # number of ReadCleanReq MSHR miss cycles
system.l2.ReadCleanReq_mshr_miss_rate::.cpu.inst     0.881110                       # mshr miss rate for ReadCleanReq accesses
system.l2.ReadCleanReq_mshr_miss_rate::total     0.881110                       # mshr miss rate for ReadCleanReq accesses
system.l2.ReadCleanReq_avg_mshr_miss_latency::.cpu.inst 79160.419790                       # average ReadCleanReq mshr miss latency
system.l2.ReadCleanReq_avg_mshr_miss_latency::total 79160.419790                       # average ReadCleanReq mshr miss latency
system.l2.ReadSharedReq_hits::.cpu.data        470890                       # number of ReadSharedReq hits
system.l2.ReadSharedReq_hits::total            470890                       # number of ReadSharedReq hits
system.l2.ReadSharedReq_misses::.cpu.data        64244                       # number of ReadSharedReq misses
system.l2.ReadSharedReq_misses::total           64244                       # number of ReadSharedReq misses
system.l2.ReadSharedReq_miss_latency::.cpu.data   6404178000                       # number of ReadSharedReq miss cycles
system.l2.ReadSharedReq_miss_latency::total   6404178000                       # number of ReadSharedReq miss cycles
system.l2.ReadSharedReq_accesses::.cpu.data       535134                       # number of ReadSharedReq accesses(hits+misses)
system.l2.ReadSharedReq_accesses::total        535134                       # number of ReadSharedReq accesses(hits+misses)
system.l2.ReadSharedReq_miss_rate::.cpu.data     0.120052                       # miss rate for ReadSharedReq accesses
system.l2.ReadSharedReq_miss_rate::total     0.120052                       # miss rate for ReadSharedReq accesses
system.l2.ReadSharedReq_avg_miss_latency::.cpu.data 99685.231306                       # average ReadSharedReq miss latency
system.l2.ReadSharedReq_avg_miss_latency::total 99685.231306                       # average ReadSharedReq miss latency
system.l2.ReadSharedReq_mshr_hits::.cpu.data            5                       # number of ReadSharedReq MSHR hits
system.l2.ReadSharedReq_mshr_hits::total            5                       # number of ReadSharedReq MSHR hits
system.l2.ReadSharedReq_mshr_misses::.cpu.data        64239                       # number of ReadSharedReq MSHR misses
system.l2.ReadSharedReq_mshr_misses::total        64239                       # number of ReadSharedReq MSHR misses
system.l2.ReadSharedReq_mshr_miss_latency::.cpu.data   5118987000                       # number of ReadSharedReq MSHR miss cycles
system.l2.ReadSharedReq_mshr_miss_latency::total   5118987000                       # number of ReadSharedReq MSHR miss cycles
system.l2.ReadSharedReq_mshr_miss_rate::.cpu.data     0.120043                       # mshr miss rate for ReadSharedReq accesses
system.l2.ReadSharedReq_mshr_miss_rate::total     0.120043                       # mshr miss rate for ReadSharedReq accesses
system.l2.ReadSharedReq_avg_mshr_miss_latency::.cpu.data 79686.592257                       # average ReadSharedReq mshr miss latency
system.l2.ReadSharedReq_avg_mshr_miss_latency::total 79686.592257                       # average ReadSharedReq mshr miss latency
system.l2.tags.pwrStateResidencyTicks::UNDEFINED 164052113000                       # Cumulative time (in ticks) in various power states
system.l2.tags.tagsinuse                 32170.604528                       # Cycle average of tags in use
system.l2.tags.total_refs                     1754134                       # Total number of references to valid blocks.
system.l2.tags.sampled_refs                    201272                       # Sample count of references to valid blocks.
system.l2.tags.avg_refs                      8.715241                       # Average number of references to valid blocks.
system.l2.tags.warmup_cycle                     87000                       # Cycle when the warmup percentage was hit.
system.l2.tags.occ_blocks::.writebacks      44.222762                       # Average occupied blocks per requestor
system.l2.tags.occ_blocks::.cpu.inst        82.601529                       # Average occupied blocks per requestor
system.l2.tags.occ_blocks::.cpu.data     32043.780237                       # Average occupied blocks per requestor
system.l2.tags.occ_percent::.writebacks      0.001350                       # Average percentage of cache occupancy
system.l2.tags.occ_percent::.cpu.inst        0.002521                       # Average percentage of cache occupancy
system.l2.tags.occ_percent::.cpu.data        0.977899                       # Average percentage of cache occupancy
system.l2.tags.occ_percent::total            0.981769                       # Average percentage of cache occupancy
system.l2.tags.occ_task_id_blocks::1024         32768                       # Occupied blocks per task id
system.l2.tags.age_task_id_blocks_1024::0           17                       # Occupied blocks per task id
system.l2.tags.age_task_id_blocks_1024::1           96                       # Occupied blocks per task id
system.l2.tags.age_task_id_blocks_1024::2          587                       # Occupied blocks per task id
system.l2.tags.age_task_id_blocks_1024::3         8043                       # Occupied blocks per task id
system.l2.tags.age_task_id_blocks_1024::4        24025                       # Occupied blocks per task id
system.l2.tags.occ_task_id_percent::1024            1                       # Percentage of cache occupancy per task id
system.l2.tags.tag_accesses                  14234384                       # Number of tag accesses
system.l2.tags.data_accesses                 14234384                       # Number of data accesses
system.cpu_voltage_domain.voltage                   1                       # Voltage in Volts
system.mem_ctrls.pwrStateResidencyTicks::UNDEFINED 164052113000                       # Cumulative time (in ticks) in various power states
system.mem_ctrls.bytes_read::.cpu.inst          42688                       # Number of bytes read from this memory
system.mem_ctrls.bytes_read::.cpu.data       12830272                       # Number of bytes read from this memory
system.mem_ctrls.bytes_read::total           12872960                       # Number of bytes read from this memory
system.mem_ctrls.bytes_inst_read::.cpu.inst        42688                       # Number of instructions bytes read from this memory
system.mem_ctrls.bytes_inst_read::total         42688                       # Number of instructions bytes read from this memory
system.mem_ctrls.bytes_written::.writebacks      7118336                       # Number of bytes written to this memory
system.mem_ctrls.bytes_written::total         7118336                       # Number of bytes written to this memory
system.mem_ctrls.num_reads::.cpu.inst             667                       # Number of read requests responded to by this memory
system.mem_ctrls.num_reads::.cpu.data          200473                       # Number of read requests responded to by this memory
system.mem_ctrls.num_reads::total              201140                       # Number of read requests responded to by this memory
system.mem_ctrls.num_writes::.writebacks       111224                       # Number of write requests responded to by this memory
system.mem_ctrls.num_writes::total             111224                       # Number of write requests responded to by this memory
system.mem_ctrls.bw_read::.cpu.inst            260210                       # Total read bandwidth from this memory (bytes/s)
system.mem_ctrls.bw_read::.cpu.data          78208514                       # Total read bandwidth from this memory (bytes/s)
system.mem_ctrls.bw_read::total              78468724                       # Total read bandwidth from this memory (bytes/s)
system.mem_ctrls.bw_inst_read::.cpu.inst       260210                       # Instruction read bandwidth from this memory (bytes/s)
system.mem_ctrls.bw_inst_read::total           260210                       # Instruction read bandwidth from this memory (bytes/s)
system.mem_ctrls.bw_write::.writebacks       43390700                       # Write bandwidth from this memory (bytes/s)
system.mem_ctrls.bw_write::total             43390700                       # Write bandwidth from this memory (bytes/s)
system.mem_ctrls.bw_total::.writebacks       43390700                       # Total bandwidth to/from this memory (bytes/s)
system.mem_ctrls.bw_total::.cpu.inst           260210                       # Total bandwidth to/from this memory (bytes/s)
system.mem_ctrls.bw_total::.cpu.data         78208514                       # Total bandwidth to/from this memory (bytes/s)
system.mem_ctrls.bw_total::total            121859424                       # Total bandwidth to/from this memory (bytes/s)
system.mem_ctrls.avgPriority_.writebacks::samples    111224.00                       # Average QoS priority value for accepted requests
system.mem_ctrls.avgPriority_.cpu.inst::samples       667.00                       # Average QoS priority value for accepted requests
system.mem_ctrls.avgPriority_.cpu.data::samples    200435.00                       # Average QoS priority value for accepted requests
system.mem_ctrls.priorityMinLatency      0.000000018750                       # per QoS priority minimum request to response latency (s)
system.mem_ctrls.priorityMaxLatency      0.006048710500                       # per QoS priority maximum request to response latency (s)
system.mem_ctrls.numReadWriteTurnArounds         6617                       # Number of turnarounds from READ to WRITE
system.mem_ctrls.numWriteReadTurnArounds         6617                       # Number of turnarounds from WRITE to READ
system.mem_ctrls.numStayReadState              546575                       # Number of times bus staying in READ state
system.mem_ctrls.numStayWriteState             104737                       # Number of times bus staying in WRITE state
system.mem_ctrls.readReqs                      201140                       # Number of read requests accepted
system.mem_ctrls.writeReqs                     111224                       # Number of write requests accepted
system.mem_ctrls.readBursts                    201140                       # Number of DRAM read bursts, including those serviced by the write queue
system.mem_ctrls.writeBursts                   111224                       # Number of DRAM write bursts, including those merged in the write queue
system.mem_ctrls.servicedByWrQ                     38                       # Number of DRAM read bursts serviced by the write queue
system.mem_ctrls.mergedWrBursts                     0                       # Number of DRAM write bursts merged with an existing one
system.mem_ctrls.neitherReadNorWriteReqs            0                       # Number of requests that are neither read nor write
system.mem_ctrls.perBankRdBursts::0             12781                       # Per bank write bursts
system.mem_ctrls.perBankRdBursts::1             12867                       # Per bank write bursts
system.mem_ctrls.perBankRdBursts::2             12569                       # Per bank write bursts
system.mem_ctrls.perBankRdBursts::3             12430                       # Per bank write bursts
system.mem_ctrls.perBankRdBursts::4             12280                       # Per bank write bursts
system.mem_ctrls.perBankRdBursts::5             12445                       # Per bank write bursts
system.mem_ctrls.perBankRdBursts::6             12438                       # Per bank write bursts
system.mem_ctrls.perBankRdBursts::7             12391                       # Per bank write bursts
system.mem_ctrls.perBankRdBursts::8             12498                       # Per bank write bursts
system.mem_ctrls.perBankRdBursts::9             12443                       # Per bank write bursts
system.mem_ctrls.perBankRdBursts::10            12463                       # Per bank write bursts
system.mem_ctrls.perBankRdBursts::11            12829                       # Per bank write bursts
system.mem_ctrls.perBankRdBursts::12            12668                       # Per bank write bursts
system.mem_ctrls.perBankRdBursts::13            12653                       # Per bank write bursts
system.mem_ctrls.perBankRdBursts::14            12691                       # Per bank write bursts
system.mem_ctrls.perBankRdBursts::15            12656                       # Per bank write bursts
system.mem_ctrls.perBankWrBursts::0              7104                       # Per bank write bursts
system.mem_ctrls.perBankWrBursts::1              7212                       # Per bank write bursts
system.mem_ctrls.perBankWrBursts::2              6994                       # Per bank write bursts
system.mem_ctrls.perBankWrBursts::3              6922                       # Per bank write bursts
system.mem_ctrls.perBankWrBursts::4              6935                       # Per bank write bursts
system.mem_ctrls.perBankWrBursts::5              6813                       # Per bank write bursts
system.mem_ctrls.perBankWrBursts::6              6802                       # Per bank write bursts
system.mem_ctrls.perBankWrBursts::7              6744                       # Per bank write bursts
system.mem_ctrls.perBankWrBursts::8              6835                       # Per bank write bursts
system.mem_ctrls.perBankWrBursts::9              6859                       # Per bank write bursts
system.mem_ctrls.perBankWrBursts::10             6782                       # Per bank write bursts
system.mem_ctrls.perBankWrBursts::11             7057                       # Per bank write bursts
system.mem_ctrls.perBankWrBursts::12             7005                       # Per bank write bursts
system.mem_ctrls.perBankWrBursts::13             6973                       # Per bank write bursts
system.mem_ctrls.perBankWrBursts::14             7067                       # Per bank write bursts
system.mem_ctrls.perBankWrBursts::15             7094                       # Per bank write bursts
system.mem_ctrls.avgRdQLen                       1.04                       # Average read queue length when enqueuing
system.mem_ctrls.avgWrQLen                      24.62                       # Average write queue length when enqueuing
system.mem_ctrls.totQLat                   2811673250                       # Total ticks spent queuing
system.mem_ctrls.totBusLat                 1005510000                       # Total ticks spent in databus transfers
system.mem_ctrls.totMemAccLat              6582335750                       # Total ticks spent from burst creation until serviced by the DRAM
system.mem_ctrls.avgQLat                     13981.33                       # Average queueing delay per DRAM burst
system.mem_ctrls.avgBusLat                    5000.00                       # Average bus latency per DRAM burst
system.mem_ctrls.avgMemAccLat                32731.33                       # Average memory access latency per DRAM burst
system.mem_ctrls.numRdRetry                         0                       # Number of times read queue was full causing retry
system.mem_ctrls.numWrRetry                         0                       # Number of times write queue was full causing retry
system.mem_ctrls.readRowHits                   131444                       # Number of row buffer hits during reads
system.mem_ctrls.writeRowHits                   69454                       # Number of row buffer hits during writes
system.mem_ctrls.readRowHitRate                 65.36                       # Row buffer hit rate for reads
system.mem_ctrls.writeRowHitRate                62.45                       # Row buffer hit rate for writes
system.mem_ctrls.readPktSize::0                     0                       # Read request sizes (log2)
system.mem_ctrls.readPktSize::1                     0                       # Read request sizes (log2)
system.mem_ctrls.readPktSize::2                     0                       # Read request sizes (log2)
system.mem_ctrls.readPktSize::3                     0                       # Read request sizes (log2)
system.mem_ctrls.readPktSize::4                     0                       # Read request sizes (log2)
system.mem_ctrls.readPktSize::5                     0                       # Read request sizes (log2)
system.mem_ctrls.readPktSize::6                201140                       # Read request sizes (log2)
system.mem_ctrls.writePktSize::0                    0                       # Write request sizes (log2)
system.mem_ctrls.writePktSize::1                    0                       # Write request sizes (log2)
system.mem_ctrls.writePktSize::2                    0                       # Write request sizes (log2)
system.mem_ctrls.writePktSize::3                    0                       # Write request sizes (log2)
system.mem_ctrls.writePktSize::4                    0                       # Write request sizes (log2)
system.mem_ctrls.writePktSize::5                    0                       # Write request sizes (log2)
system.mem_ctrls.writePktSize::6               111224                       # Write request sizes (log2)
system.mem_ctrls.rdQLenPdf::0                  152907                       # What read queue length does an incoming req see
system.mem_ctrls.rdQLenPdf::1                   47746                       # What read queue length does an incoming req see
system.mem_ctrls.rdQLenPdf::2                     280                       # What read queue length does an incoming req see
system.mem_ctrls.rdQLenPdf::3                     168                       # What read queue length does an incoming req see
system.mem_ctrls.rdQLenPdf::4                       1                       # What read queue length does an incoming req see
system.mem_ctrls.rdQLenPdf::5                       0                       # What read queue length does an incoming req see
system.mem_ctrls.rdQLenPdf::6                       0                       # What read queue length does an incoming req see
system.mem_ctrls.rdQLenPdf::7                       0                       # What read queue length does an incoming req see
system.mem_ctrls.rdQLenPdf::8                       0                       # What read queue length does an incoming req see
system.mem_ctrls.rdQLenPdf::9                       0                       # What read queue length does an incoming req see
system.mem_ctrls.rdQLenPdf::10                      0                       # What read queue length does an incoming req see
system.mem_ctrls.rdQLenPdf::11                      0                       # What read queue length does an incoming req see
system.mem_ctrls.rdQLenPdf::12                      0                       # What read queue length does an incoming req see
system.mem_ctrls.rdQLenPdf::13                      0                       # What read queue length does an incoming req see
system.mem_ctrls.rdQLenPdf::14                      0                       # What read queue length does an incoming req see
system.mem_ctrls.rdQLenPdf::15                      0                       # What read queue length does an incoming req see
system.mem_ctrls.rdQLenPdf::16                      0                       # What read queue length does an incoming req see
system.mem_ctrls.rdQLenPdf::17                      0                       # What read queue length does an incoming req see
system.mem_ctrls.rdQLenPdf::18                      0                       # What read queue length does an incoming req see
system.mem_ctrls.rdQLenPdf::19                      0                       # What read queue length does an incoming req see
system.mem_ctrls.rdQLenPdf::20                      0                       # What read queue length does an incoming req see
system.mem_ctrls.rdQLenPdf::21                      0                       # What read queue length does an incoming req see
system.mem_ctrls.rdQLenPdf::22                      0                       # What read queue length does an incoming req see
system.mem_ctrls.rdQLenPdf::23                      0                       # What read queue length does an incoming req see
system.mem_ctrls.rdQLenPdf::24                      0                       # What read queue length does an incoming req see
system.mem_ctrls.rdQLenPdf::25                      0                       # What read queue length does an incoming req see
system.mem_ctrls.rdQLenPdf::26                      0                       # What read queue length does an incoming req see
system.mem_ctrls.rdQLenPdf::27                      0                       # What read queue length does an incoming req see
system.mem_ctrls.rdQLenPdf::28                      0                       # What read queue length does an incoming req see
system.mem_ctrls.rdQLenPdf::29                      0                       # What read queue length does an incoming req see
system.mem_ctrls.rdQLenPdf::30                      0                       # What read queue length does an incoming req see
system.mem_ctrls.rdQLenPdf::31                      0                       # What read queue length does an incoming req see
system.mem_ctrls.wrQLenPdf::0                       1                       # What write queue length does an incoming req see
system.mem_ctrls.wrQLenPdf::1                       1                       # What write queue length does an incoming req see
system.mem_ctrls.wrQLenPdf::2                       1                       # What write queue length does an incoming req see
system.mem_ctrls.wrQLenPdf::3                       1                       # What write queue length does an incoming req see
system.mem_ctrls.wrQLenPdf::4                       1                       # What write queue length does an incoming req see
system.mem_ctrls.wrQLenPdf::5                       1                       # What write queue length does an incoming req see
system.mem_ctrls.wrQLenPdf::6                       1                       # What write queue length does an incoming req see
system.mem_ctrls.wrQLenPdf::7                       1                       # What write queue length does an incoming req see
system.mem_ctrls.wrQLenPdf::8                       1                       # What write queue length does an incoming req see
system.mem_ctrls.wrQLenPdf::9                       1                       # What write queue length does an incoming req see
system.mem_ctrls.wrQLenPdf::10                      1                       # What write queue length does an incoming req see
system.mem_ctrls.wrQLenPdf::11                      1                       # What write queue length does an incoming req see
system.mem_ctrls.wrQLenPdf::12                      1                       # What write queue length does an incoming req see
system.mem_ctrls.wrQLenPdf::13                      1                       # What write queue length does an incoming req see
system.mem_ctrls.wrQLenPdf::14                      1                       # What write queue length does an incoming req see
system.mem_ctrls.wrQLenPdf::15                   2468                       # What write queue length does an incoming req see
system.mem_ctrls.wrQLenPdf::16                   2607                       # What write queue length does an incoming req see
system.mem_ctrls.wrQLenPdf::17                   6197                       # What write queue length does an incoming req see
system.mem_ctrls.wrQLenPdf::18                   6630                       # What write queue length does an incoming req see
system.mem_ctrls.wrQLenPdf::19                   6655                       # What write queue length does an incoming req see
system.mem_ctrls.wrQLenPdf::20                   6668                       # What write queue length does an incoming req see
system.mem_ctrls.wrQLenPdf::21                   6743                       # What write queue length does an incoming req see
system.mem_ctrls.wrQLenPdf::22                   6703                       # What write queue length does an incoming req see
system.mem_ctrls.wrQLenPdf::23                   6692                       # What write queue length does an incoming req see
system.mem_ctrls.wrQLenPdf::24                   6687                       # What write queue length does an incoming req see
system.mem_ctrls.wrQLenPdf::25                   6647                       # What write queue length does an incoming req see
system.mem_ctrls.wrQLenPdf::26                   6665                       # What write queue length does an incoming req see
system.mem_ctrls.wrQLenPdf::27                   6636                       # What write queue length does an incoming req see
system.mem_ctrls.wrQLenPdf::28                   6642                       # What write queue length does an incoming req see
system.mem_ctrls.wrQLenPdf::29                   6662                       # What write queue length does an incoming req see
system.mem_ctrls.wrQLenPdf::30                   6626                       # What write queue length does an incoming req see
system.mem_ctrls.wrQLenPdf::31                   6660                       # What write queue length does an incoming req see
system.mem_ctrls.wrQLenPdf::32                   6618                       # What write queue length does an incoming req see
system.mem_ctrls.wrQLenPdf::33                      3                       # What write queue length does an incoming req see
system.mem_ctrls.wrQLenPdf::34                      0                       # What write queue length does an incoming req see
system.mem_ctrls.wrQLenPdf::35                      0                       # What write queue length does an incoming req see
system.mem_ctrls.wrQLenPdf::36                      0                       # What write queue length does an incoming req see
system.mem_ctrls.wrQLenPdf::37                      0                       # What write queue length does an incoming req see
system.mem_ctrls.wrQLenPdf::38                      0                       # What write queue length does an incoming req see
system.mem_ctrls.wrQLenPdf::39                      0                       # What write queue length does an incoming req see
system.mem_ctrls.wrQLenPdf::40                      0                       # What write queue length does an incoming req see
system.mem_ctrls.wrQLenPdf::41                      0                       # What write queue length does an incoming req see
system.mem_ctrls.wrQLenPdf::42                      0                       # What write queue length does an incoming req see
system.mem_ctrls.wrQLenPdf::43                      0                       # What write queue length does an incoming req see
system.mem_ctrls.wrQLenPdf::44                      0                       # What write queue length does an incoming req see
system.mem_ctrls.wrQLenPdf::45                      0                       # What write queue length does an incoming req see
system.mem_ctrls.wrQLenPdf::46                      0                       # What write queue length does an incoming req see
system.mem_ctrls.wrQLenPdf::47                      0                       # What write queue length does an incoming req see
system.mem_ctrls.wrQLenPdf::48                      0                       # What write queue length does an incoming req see
system.mem_ctrls.wrQLenPdf::49                      0                       # What write queue length does an incoming req see
system.mem_ctrls.wrQLenPdf::50                      0                       # What write queue length does an incoming req see
system.mem_ctrls.wrQLenPdf::51                      0                       # What write queue length does an incoming req see
system.mem_ctrls.wrQLenPdf::52                      0                       # What write queue length does an incoming req see
system.mem_ctrls.wrQLenPdf::53                      0                       # What write queue length does an incoming req see
system.mem_ctrls.wrQLenPdf::54                      0                       # What write queue length does an incoming req see
system.mem_ctrls.wrQLenPdf::55                      0                       # What write queue length does an incoming req see
system.mem_ctrls.wrQLenPdf::56                      0                       # What write queue length does an incoming req see
system.mem_ctrls.wrQLenPdf::57                      0                       # What write queue length does an incoming req see
system.mem_ctrls.wrQLenPdf::58                      0                       # What write queue length does an incoming req see
system.mem_ctrls.wrQLenPdf::59                      0                       # What write queue length does an incoming req see
system.mem_ctrls.wrQLenPdf::60                      0                       # What write queue length does an incoming req see
system.mem_ctrls.wrQLenPdf::61                      0                       # What write queue length does an incoming req see
system.mem_ctrls.wrQLenPdf::62                      0                       # What write queue length does an incoming req see
system.mem_ctrls.wrQLenPdf::63                      0                       # What write queue length does an incoming req see
system.mem_ctrls.bytesPerActivate::samples       111400                       # Bytes accessed per row activation
system.mem_ctrls.bytesPerActivate::mean    179.416589                       # Bytes accessed per row activation
system.mem_ctrls.bytesPerActivate::gmean   106.559446                       # Bytes accessed per row activation
system.mem_ctrls.bytesPerActivate::stdev   244.119970                       # Bytes accessed per row activation
system.mem_ctrls.bytesPerActivate::0-127        77524     69.59%     69.59% # Bytes accessed per row activation
system.mem_ctrls.bytesPerActivate::128-255        11294     10.14%     79.73% # Bytes accessed per row activation
system.mem_ctrls.bytesPerActivate::256-383         5532      4.97%     84.69% # Bytes accessed per row activation
system.mem_ctrls.bytesPerActivate::384-511         1431      1.28%     85.98% # Bytes accessed per row activation
system.mem_ctrls.bytesPerActivate::512-639         8599      7.72%     93.70% # Bytes accessed per row activation
system.mem_ctrls.bytesPerActivate::640-767          711      0.64%     94.34% # Bytes accessed per row activation
system.mem_ctrls.bytesPerActivate::768-895          449      0.40%     94.74% # Bytes accessed per row activation
system.mem_ctrls.bytesPerActivate::896-1023          441      0.40%     95.14% # Bytes accessed per row activation
system.mem_ctrls.bytesPerActivate::1024-1151         5419      4.86%    100.00% # Bytes accessed per row activation
system.mem_ctrls.bytesPerActivate::total       111400                       # Bytes accessed per row activation
system.mem_ctrls.rdPerTurnAround::samples         6617                       # Reads before turning the bus around for writes
system.mem_ctrls.rdPerTurnAround::mean      30.390358                       # Reads before turning the bus around for writes
system.mem_ctrls.rdPerTurnAround::gmean     23.892154                       # Reads before turning the bus around for writes
system.mem_ctrls.rdPerTurnAround::stdev     52.665715                       # Reads before turning the bus around for writes
system.mem_ctrls.rdPerTurnAround::0-127          6446     97.42%     97.42% # Reads before turning the bus around for writes
system.mem_ctrls.rdPerTurnAround::128-255           41      0.62%     98.04% # Reads before turning the bus around for writes
system.mem_ctrls.rdPerTurnAround::256-383          127      1.92%     99.95% # Reads before turning the bus around for writes
system.mem_ctrls.rdPerTurnAround::640-767            1      0.02%     99.97% # Reads before turning the bus around for writes
system.mem_ctrls.rdPerTurnAround::1664-1791            1      0.02%     99.98% # Reads before turning the bus around for writes
system.mem_ctrls.rdPerTurnAround::2432-2559            1      0.02%    100.00% # Reads before turning the bus around for writes
system.mem_ctrls.rdPerTurnAround::total          6617                       # Reads before turning the bus around for writes
system.mem_ctrls.wrPerTurnAround::samples         6617                       # Writes before turning the bus around for reads
system.mem_ctrls.wrPerTurnAround::mean      16.804896                       # Writes before turning the bus around for reads
[...]
system.cpu.icache.tags.occ_blocks::.cpu.inst   364.138821                       # Average occupied blocks per requestor
system.cpu.icache.tags.occ_percent::.cpu.inst     0.711209                       # Average percentage of cache occupancy
system.cpu.icache.tags.occ_percent::total     0.711209                       # Average percentage of cache occupancy
system.cpu.icache.tags.occ_task_id_blocks::1024          441                       # Occupied blocks per task id
system.cpu.icache.tags.age_task_id_blocks_1024::4          441                       # Occupied blocks per task id
system.cpu.icache.tags.occ_task_id_percent::1024     0.861328                       # Percentage of cache occupancy per task id
system.cpu.icache.tags.tag_accesses          20399067                       # Number of tag accesses
system.cpu.icache.tags.data_accesses         20399067                       # Number of data accesses
system.cpu.dtb.walker.pwrStateResidencyTicks::UNDEFINED 164052113000                       # Cumulative time (in ticks) in various power states
system.cpu.dtb.stage2_mmu.stage2_tlb.walker.pwrStateResidencyTicks::UNDEFINED 164052113000                       # Cumulative time (in ticks) in various power states
system.cpu.dcache.pwrStateResidencyTicks::UNDEFINED 164052113000                       # Cumulative time (in ticks) in various power states
system.cpu.dcache.demand_hits::.cpu.data     51233162                       # number of demand (read+write) hits
system.cpu.dcache.demand_hits::total         51233162                       # number of demand (read+write) hits
system.cpu.dcache.overall_hits::.cpu.data     51233634                       # number of overall hits
system.cpu.dcache.overall_hits::total        51233634                       # number of overall hits
system.cpu.dcache.demand_misses::.cpu.data       922243                       # number of demand (read+write) misses
system.cpu.dcache.demand_misses::total         922243                       # number of demand (read+write) misses
system.cpu.dcache.overall_misses::.cpu.data       930190                       # number of overall misses
system.cpu.dcache.overall_misses::total        930190                       # number of overall misses
system.cpu.dcache.demand_miss_latency::.cpu.data  40248769000                       # number of demand (read+write) miss cycles
system.cpu.dcache.demand_miss_latency::total  40248769000                       # number of demand (read+write) miss cycles
system.cpu.dcache.overall_miss_latency::.cpu.data  40248769000                       # number of overall miss cycles
system.cpu.dcache.overall_miss_latency::total  40248769000                       # number of overall miss cycles
system.cpu.dcache.demand_accesses::.cpu.data     52155405                       # number of demand (read+write) accesses
system.cpu.dcache.demand_accesses::total     52155405                       # number of demand (read+write) accesses
system.cpu.dcache.overall_accesses::.cpu.data     52163824                       # number of overall (read+write) accesses
system.cpu.dcache.overall_accesses::total     52163824                       # number of overall (read+write) accesses
system.cpu.dcache.demand_miss_rate::.cpu.data     0.017683                       # miss rate for demand accesses
system.cpu.dcache.demand_miss_rate::total     0.017683                       # miss rate for demand accesses
system.cpu.dcache.overall_miss_rate::.cpu.data     0.017832                       # miss rate for overall accesses
system.cpu.dcache.overall_miss_rate::total     0.017832                       # miss rate for overall accesses
system.cpu.dcache.demand_avg_miss_latency::.cpu.data 43642.260229                       # average overall miss latency
system.cpu.dcache.demand_avg_miss_latency::total 43642.260229                       # average overall miss latency
system.cpu.dcache.overall_avg_miss_latency::.cpu.data 43269.406250                       # average overall miss latency
system.cpu.dcache.overall_avg_miss_latency::total 43269.406250                       # average overall miss latency
system.cpu.dcache.blocked_cycles::no_mshrs        93654                       # number of cycles access was blocked
system.cpu.dcache.blocked_cycles::no_targets            0                       # number of cycles access was blocked
system.cpu.dcache.blocked::no_mshrs              3396                       # number of cycles access was blocked
system.cpu.dcache.blocked::no_targets               0                       # number of cycles access was blocked
system.cpu.dcache.avg_blocked_cycles::no_mshrs    27.577739                       # average number of cycles each access was blocked
system.cpu.dcache.avg_blocked_cycles::no_targets          nan                       # average number of cycles each access was blocked
system.cpu.dcache.writebacks::.writebacks       798177                       # number of writebacks
system.cpu.dcache.writebacks::total            798177                       # number of writebacks
system.cpu.dcache.demand_mshr_hits::.cpu.data        53231                       # number of demand (read+write) MSHR hits
system.cpu.dcache.demand_mshr_hits::total        53231                       # number of demand (read+write) MSHR hits
system.cpu.dcache.overall_mshr_hits::.cpu.data        53231                       # number of overall MSHR hits
system.cpu.dcache.overall_mshr_hits::total        53231                       # number of overall MSHR hits
system.cpu.dcache.demand_mshr_misses::.cpu.data       869012                       # number of demand (read+write) MSHR misses
system.cpu.dcache.demand_mshr_misses::total       869012                       # number of demand (read+write) MSHR misses
system.cpu.dcache.overall_mshr_misses::.cpu.data       876954                       # number of overall MSHR misses
system.cpu.dcache.overall_mshr_misses::total       876954                       # number of overall MSHR misses
system.cpu.dcache.demand_mshr_miss_latency::.cpu.data  36926849000                       # number of demand (read+write) MSHR miss cycles
system.cpu.dcache.demand_mshr_miss_latency::total  36926849000                       # number of demand (read+write) MSHR miss cycles
system.cpu.dcache.overall_mshr_miss_latency::.cpu.data  37745187999                       # number of overall MSHR miss cycles
system.cpu.dcache.overall_mshr_miss_latency::total  37745187999                       # number of overall MSHR miss cycles
system.cpu.dcache.demand_mshr_miss_rate::.cpu.data     0.016662                       # mshr miss rate for demand accesses
system.cpu.dcache.demand_mshr_miss_rate::total     0.016662                       # mshr miss rate for demand accesses
system.cpu.dcache.overall_mshr_miss_rate::.cpu.data     0.016812                       # mshr miss rate for overall accesses
system.cpu.dcache.overall_mshr_miss_rate::total     0.016812                       # mshr miss rate for overall accesses
system.cpu.dcache.demand_avg_mshr_miss_latency::.cpu.data 42492.910340                       # average overall mshr miss latency
system.cpu.dcache.demand_avg_mshr_miss_latency::total 42492.910340                       # average overall mshr miss latency
system.cpu.dcache.overall_avg_mshr_miss_latency::.cpu.data 43041.240474                       # average overall mshr miss latency
system.cpu.dcache.overall_avg_mshr_miss_latency::total 43041.240474                       # average overall mshr miss latency
system.cpu.dcache.replacements                 876446                       # number of replacements
system.cpu.dcache.ReadReq_hits::.cpu.data     40649594                       # number of ReadReq hits
system.cpu.dcache.ReadReq_hits::total        40649594                       # number of ReadReq hits
system.cpu.dcache.ReadReq_misses::.cpu.data       527632                       # number of ReadReq misses
system.cpu.dcache.ReadReq_misses::total        527632                       # number of ReadReq misses
system.cpu.dcache.ReadReq_miss_latency::.cpu.data  18165467000                       # number of ReadReq miss cycles
system.cpu.dcache.ReadReq_miss_latency::total  18165467000                       # number of ReadReq miss cycles
system.cpu.dcache.ReadReq_accesses::.cpu.data     41177226                       # number of ReadReq accesses(hits+misses)
system.cpu.dcache.ReadReq_accesses::total     41177226                       # number of ReadReq accesses(hits+misses)
system.cpu.dcache.ReadReq_miss_rate::.cpu.data     0.012814                       # miss rate for ReadReq accesses
system.cpu.dcache.ReadReq_miss_rate::total     0.012814                       # miss rate for ReadReq accesses
system.cpu.dcache.ReadReq_avg_miss_latency::.cpu.data 34428.289035                       # average ReadReq miss latency
system.cpu.dcache.ReadReq_avg_miss_latency::total 34428.289035                       # average ReadReq miss latency
system.cpu.dcache.ReadReq_mshr_hits::.cpu.data          444                       # number of ReadReq MSHR hits
system.cpu.dcache.ReadReq_mshr_hits::total          444                       # number of ReadReq MSHR hits
system.cpu.dcache.ReadReq_mshr_misses::.cpu.data       527188                       # number of ReadReq MSHR misses
system.cpu.dcache.ReadReq_mshr_misses::total       527188                       # number of ReadReq MSHR misses
system.cpu.dcache.ReadReq_mshr_miss_latency::.cpu.data  17092914000                       # number of ReadReq MSHR miss cycles
system.cpu.dcache.ReadReq_mshr_miss_latency::total  17092914000                       # number of ReadReq MSHR miss cycles
system.cpu.dcache.ReadReq_mshr_miss_rate::.cpu.data     0.012803                       # mshr miss rate for ReadReq accesses
system.cpu.dcache.ReadReq_mshr_miss_rate::total     0.012803                       # mshr miss rate for ReadReq accesses
system.cpu.dcache.ReadReq_avg_mshr_miss_latency::.cpu.data 32422.805527                       # average ReadReq mshr miss latency
system.cpu.dcache.ReadReq_avg_mshr_miss_latency::total 32422.805527                       # average ReadReq mshr miss latency
system.cpu.dcache.WriteReq_hits::.cpu.data     10583568                       # number of WriteReq hits
system.cpu.dcache.WriteReq_hits::total       10583568                       # number of WriteReq hits
system.cpu.dcache.WriteReq_misses::.cpu.data       394611                       # number of WriteReq misses
system.cpu.dcache.WriteReq_misses::total       394611                       # number of WriteReq misses
system.cpu.dcache.WriteReq_miss_latency::.cpu.data  22083302000                       # number of WriteReq miss cycles
system.cpu.dcache.WriteReq_miss_latency::total  22083302000                       # number of WriteReq miss cycles
system.cpu.dcache.WriteReq_accesses::.cpu.data     10978179                       # number of WriteReq accesses(hits+misses)
system.cpu.dcache.WriteReq_accesses::total     10978179                       # number of WriteReq accesses(hits+misses)
system.cpu.dcache.WriteReq_miss_rate::.cpu.data     0.035945                       # miss rate for WriteReq accesses
system.cpu.dcache.WriteReq_miss_rate::total     0.035945                       # miss rate for WriteReq accesses
system.cpu.dcache.WriteReq_avg_miss_latency::.cpu.data 55962.205818                       # average WriteReq miss latency
system.cpu.dcache.WriteReq_avg_miss_latency::total 55962.205818                       # average WriteReq miss latency
system.cpu.dcache.WriteReq_mshr_hits::.cpu.data        52787                       # number of WriteReq MSHR hits
system.cpu.dcache.WriteReq_mshr_hits::total        52787                       # number of WriteReq MSHR hits
system.cpu.dcache.WriteReq_mshr_misses::.cpu.data       341824                       # number of WriteReq MSHR misses
system.cpu.dcache.WriteReq_mshr_misses::total       341824                       # number of WriteReq MSHR misses
system.cpu.dcache.WriteReq_mshr_miss_latency::.cpu.data  19833935000                       # number of WriteReq MSHR miss cycles
system.cpu.dcache.WriteReq_mshr_miss_latency::total  19833935000                       # number of WriteReq MSHR miss cycles
system.cpu.dcache.WriteReq_mshr_miss_rate::.cpu.data     0.031137                       # mshr miss rate for WriteReq accesses
system.cpu.dcache.WriteReq_mshr_miss_rate::total     0.031137                       # mshr miss rate for WriteReq accesses
system.cpu.dcache.WriteReq_avg_mshr_miss_latency::.cpu.data 58023.822201                       # average WriteReq mshr miss latency
system.cpu.dcache.WriteReq_avg_mshr_miss_latency::total 58023.822201                       # average WriteReq mshr miss latency
system.cpu.dcache.SoftPFReq_hits::.cpu.data          472                       # number of SoftPFReq hits
system.cpu.dcache.SoftPFReq_hits::total           472                       # number of SoftPFReq hits
system.cpu.dcache.SoftPFReq_misses::.cpu.data         7947                       # number of SoftPFReq misses
system.cpu.dcache.SoftPFReq_misses::total         7947                       # number of SoftPFReq misses
system.cpu.dcache.SoftPFReq_accesses::.cpu.data         8419                       # number of SoftPFReq accesses(hits+misses)
system.cpu.dcache.SoftPFReq_accesses::total         8419                       # number of SoftPFReq accesses(hits+misses)
system.cpu.dcache.SoftPFReq_miss_rate::.cpu.data     0.943936                       # miss rate for SoftPFReq accesses
system.cpu.dcache.SoftPFReq_miss_rate::total     0.943936                       # miss rate for SoftPFReq accesses
system.cpu.dcache.SoftPFReq_mshr_misses::.cpu.data         7942                       # number of SoftPFReq MSHR misses
system.cpu.dcache.SoftPFReq_mshr_misses::total         7942                       # number of SoftPFReq MSHR misses
system.cpu.dcache.SoftPFReq_mshr_miss_latency::.cpu.data    818338999                       # number of SoftPFReq MSHR miss cycles
system.cpu.dcache.SoftPFReq_mshr_miss_latency::total    818338999                       # number of SoftPFReq MSHR miss cycles
system.cpu.dcache.SoftPFReq_mshr_miss_rate::.cpu.data     0.943342                       # mshr miss rate for SoftPFReq accesses
system.cpu.dcache.SoftPFReq_mshr_miss_rate::total     0.943342                       # mshr miss rate for SoftPFReq accesses
system.cpu.dcache.SoftPFReq_avg_mshr_miss_latency::.cpu.data 103039.410602                       # average SoftPFReq mshr miss latency
system.cpu.dcache.SoftPFReq_avg_mshr_miss_latency::total 103039.410602                       # average SoftPFReq mshr miss latency
system.cpu.dcache.LoadLockedReq_hits::.cpu.data           34                       # number of LoadLockedReq hits
system.cpu.dcache.LoadLockedReq_hits::total           34                       # number of LoadLockedReq hits
system.cpu.dcache.LoadLockedReq_misses::.cpu.data            4                       # number of LoadLockedReq misses
system.cpu.dcache.LoadLockedReq_misses::total            4                       # number of LoadLockedReq misses
system.cpu.dcache.LoadLockedReq_miss_latency::.cpu.data       311000                       # number of LoadLockedReq miss cycles
system.cpu.dcache.LoadLockedReq_miss_latency::total       311000                       # number of LoadLockedReq miss cycles
system.cpu.dcache.LoadLockedReq_accesses::.cpu.data           38                       # number of LoadLockedReq accesses(hits+misses)
system.cpu.dcache.LoadLockedReq_accesses::total           38                       # number of LoadLockedReq accesses(hits+misses)
system.cpu.dcache.LoadLockedReq_miss_rate::.cpu.data     0.105263                       # miss rate for LoadLockedReq accesses
system.cpu.dcache.LoadLockedReq_miss_rate::total     0.105263                       # miss rate for LoadLockedReq accesses
system.cpu.dcache.LoadLockedReq_avg_miss_latency::.cpu.data        77750                       # average LoadLockedReq miss latency
system.cpu.dcache.LoadLockedReq_avg_miss_latency::total        77750                       # average LoadLockedReq miss latency
system.cpu.dcache.LoadLockedReq_mshr_misses::.cpu.data            4                       # number of LoadLockedReq MSHR misses
system.cpu.dcache.LoadLockedReq_mshr_misses::total            4                       # number of LoadLockedReq MSHR misses
system.cpu.dcache.LoadLockedReq_mshr_miss_latency::.cpu.data       303000                       # number of LoadLockedReq MSHR miss cycles
system.cpu.dcache.LoadLockedReq_mshr_miss_latency::total       303000                       # number of LoadLockedReq MSHR miss cycles
system.cpu.dcache.LoadLockedReq_mshr_miss_rate::.cpu.data     0.105263                       # mshr miss rate for LoadLockedReq accesses
system.cpu.dcache.LoadLockedReq_mshr_miss_rate::total     0.105263                       # mshr miss rate for LoadLockedReq accesses
system.cpu.dcache.LoadLockedReq_avg_mshr_miss_latency::.cpu.data        75750                       # average LoadLockedReq mshr miss latency
system.cpu.dcache.LoadLockedReq_avg_mshr_miss_latency::total        75750                       # average LoadLockedReq mshr miss latency
system.cpu.dcache.StoreCondReq_hits::.cpu.data           38                       # number of StoreCondReq hits
system.cpu.dcache.StoreCondReq_hits::total           38                       # number of StoreCondReq hits
system.cpu.dcache.StoreCondReq_accesses::.cpu.data           38                       # number of StoreCondReq accesses(hits+misses)
system.cpu.dcache.StoreCondReq_accesses::total           38                       # number of StoreCondReq accesses(hits+misses)
system.cpu.dcache.tags.pwrStateResidencyTicks::UNDEFINED 164052113000                       # Cumulative time (in ticks) in various power states
system.cpu.dcache.tags.tagsinuse           507.398194                       # Cycle average of tags in use
system.cpu.dcache.tags.total_refs            52110664                       # Total number of references to valid blocks.
system.cpu.dcache.tags.sampled_refs            876958                       # Sample count of references to valid blocks.
system.cpu.dcache.tags.avg_refs             59.422075                       # Average number of references to valid blocks.
system.cpu.dcache.tags.warmup_cycle            223000                       # Cycle when the warmup percentage was hit.
system.cpu.dcache.tags.occ_blocks::.cpu.data   507.398194                       # Average occupied blocks per requestor
system.cpu.dcache.tags.occ_percent::.cpu.data     0.991012                       # Average percentage of cache occupancy
system.cpu.dcache.tags.occ_percent::total     0.991012                       # Average percentage of cache occupancy
system.cpu.dcache.tags.occ_task_id_blocks::1024          512                       # Occupied blocks per task id
system.cpu.dcache.tags.age_task_id_blocks_1024::0           82                       # Occupied blocks per task id
system.cpu.dcache.tags.age_task_id_blocks_1024::1          297                       # Occupied blocks per task id
system.cpu.dcache.tags.age_task_id_blocks_1024::2          133                       # Occupied blocks per task id
system.cpu.dcache.tags.occ_task_id_percent::1024            1                       # Percentage of cache occupancy per task id
system.cpu.dcache.tags.tag_accesses         105204758                       # Number of tag accesses
system.cpu.dcache.tags.data_accesses        105204758                       # Number of data accesses
system.cpu.itb.walker.pwrStateResidencyTicks::UNDEFINED 164052113000                       # Cumulative time (in ticks) in various power states
system.cpu.itb.stage2_mmu.stage2_tlb.walker.pwrStateResidencyTicks::UNDEFINED 164052113000                       # Cumulative time (in ticks) in various power states

---------- End Simulation Statistics   ----------
