
---------- Begin Simulation Statistics ----------
final_tick                               109758667000                       # Number of ticks from beginning of simulation (restored from checkpoints and never reset)
host_inst_rate                                 336608                       # Simulator instruction rate (inst/s)
host_mem_usage                                 716180                       # Number of bytes of host memory used
host_op_rate                                   367372                       # Simulator op (including micro ops) rate (op/s)
host_seconds                                   297.08                       # Real time elapsed on the host
host_tick_rate                              369456610                       # Simulator tick rate (ticks/s)
sim_freq                                 1000000000000                       # Frequency of simulated ticks
sim_insts                                   100000000                       # Number of instructions simulated
sim_ops                                     109139424                       # Number of ops (including micro ops) simulated
sim_seconds                                  0.109759                       # Number of seconds simulated
sim_ticks                                109758667000                       # Number of ticks simulated
system.cpu.branchPred.BTBCorrect                    0                       # Number of correct BTB predictions (this stat may not work properly.
system.cpu.branchPred.BTBHitPct             92.962915                       # BTB Hit Percentage
system.cpu.branchPred.BTBHits                 8063012                       # Number of BTB hits
system.cpu.branchPred.BTBLookups              8673364                       # Number of BTB lookups
system.cpu.branchPred.RASInCorrect                482                       # Number of incorrect RAS predictions.
system.cpu.branchPred.condIncorrect             88892                       # Number of conditional branches incorrect
system.cpu.branchPred.condPredicted          15819146                       # Number of conditional branches predicted
system.cpu.branchPred.indirectHits             287881                       # Number of indirect target hits.
system.cpu.branchPred.indirectLookups          551148                       # Number of indirect predictor lookups.
system.cpu.branchPred.indirectMisses           263267                       # Number of indirect misses.
system.cpu.branchPred.lookups                19659543                       # Number of BP lookups
system.cpu.branchPred.usedRAS                 1050656                       # Number of times the RAS was used to get a target.
system.cpu.branchPredindirectMispredicted          986                       # Number of mispredicted indirect branches.
system.cpu.committedInsts                   100000000                       # Number of instructions committed
system.cpu.committedOps                     109139424                       # Number of ops (including micro ops) committed
system.cpu.cpi                               1.097587                       # CPI: cycles per instruction
system.cpu.discardedOps                        430756                       # Number of ops (including micro ops) which were discarded before commit
system.cpu.dtb.accesses                             0                       # DTB accesses
system.cpu.dtb.align_faults                         0                       # Number of TLB faults due to alignment restrictions
system.cpu.dtb.domain_faults                        0                       # Number of TLB faults due to domain restrictions
system.cpu.dtb.flush_entries                        0                       # Number of entries that have been flushed from TLB
system.cpu.dtb.flush_tlb                            0                       # Number of times complete TLB was flushed
system.cpu.dtb.flush_tlb_asid                       0                       # Number of times TLB was flushed by ASID
system.cpu.dtb.flush_tlb_mva                        0                       # Number of times TLB was flushed by MVA
system.cpu.dtb.flush_tlb_mva_asid                   0                       # Number of times TLB was flushed by MVA & ASID
system.cpu.dtb.hits                                 0                       # DTB hits
system.cpu.dtb.inst_accesses                        0                       # ITB inst accesses
system.cpu.dtb.inst_hits                            0                       # ITB inst hits
system.cpu.dtb.inst_misses                          0                       # ITB inst misses
system.cpu.dtb.misses                               0                       # DTB misses
system.cpu.dtb.perms_faults                         0                       # Number of TLB faults due to permissions restrictions
system.cpu.dtb.prefetch_faults                      0                       # Number of TLB faults due to prefetch
system.cpu.dtb.read_accesses                        0                       # DTB read accesses
system.cpu.dtb.read_hits                            0                       # DTB read hits
system.cpu.dtb.read_misses                          0                       # DTB read misses
system.cpu.dtb.stage2_mmu.stage2_tlb.accesses            0                       # DTB accesses
system.cpu.dtb.stage2_mmu.stage2_tlb.align_faults            0                       # Number of TLB faults due to alignment restrictions
system.cpu.dtb.stage2_mmu.stage2_tlb.domain_faults            0                       # Number of TLB faults due to domain restrictions
system.cpu.dtb.stage2_mmu.stage2_tlb.flush_entries            0                       # Number of entries that have been flushed from TLB
system.cpu.dtb.stage2_mmu.stage2_tlb.flush_tlb            0                       # Number of times complete TLB was flushed
system.cpu.dtb.stage2_mmu.stage2_tlb.flush_tlb_asid            0                       # Number of times TLB was flushed by ASID
system.cpu.dtb.stage2_mmu.stage2_tlb.flush_tlb_mva            0                       # Number of times TLB was flushed by MVA
system.cpu.dtb.stage2_mmu.stage2_tlb.flush_tlb_mva_asid            0                       # Number of times TLB was flushed by MVA & ASID
system.cpu.dtb.stage2_mmu.stage2_tlb.hits            0                       # DTB hits
system.cpu.dtb.stage2_mmu.stage2_tlb.inst_accesses            0                       # ITB inst accesses
system.cpu.dtb.stage2_mmu.stage2_tlb.inst_hits            0                       # ITB inst hits
system.cpu.dtb.stage2_mmu.stage2_tlb.inst_misses            0                       # ITB inst misses
system.cpu.dtb.stage2_mmu.stage2_tlb.misses            0                       # DTB misses
system.cpu.dtb.stage2_mmu.stage2_tlb.perms_faults            0                       # Number of TLB faults due to permissions restrictions
system.cpu.dtb.stage2_mmu.stage2_tlb.prefetch_faults            0                       # Number of TLB faults due to prefetch
system.cpu.dtb.stage2_mmu.stage2_tlb.read_accesses            0                       # DTB read accesses
system.cpu.dtb.stage2_mmu.stage2_tlb.read_hits            0                       # DTB read hits
system.cpu.dtb.stage2_mmu.stage2_tlb.read_misses            0                       # DTB read misses
system.cpu.dtb.stage2_mmu.stage2_tlb.walker.walkRequestOrigin_Requested::Data            0                       # Table walker requests started/completed, data/inst
system.cpu.dtb.stage2_mmu.stage2_tlb.walker.walkRequestOrigin_Requested::Inst            0                       # Table walker requests started/completed, data/inst
system.cpu.dtb.stage2_mmu.stage2_tlb.walker.walkRequestOrigin_Requested::total            0                       # Table walker requests started/completed, data/inst
system.cpu.dtb.stage2_mmu.stage2_tlb.walker.walkRequestOrigin_Completed::Data            0                       # Table walker requests started/completed, data/inst
system.cpu.dtb.stage2_mmu.stage2_tlb.walker.walkRequestOrigin_Completed::Inst            0                       # Table walker requests started/completed, data/inst
system.cpu.dtb.stage2_mmu.stage2_tlb.walker.walkRequestOrigin_Completed::total            0                       # Table walker requests started/completed, data/inst
system.cpu.dtb.stage2_mmu.stage2_tlb.walker.walkRequestOrigin::total            0                       # Table walker requests started/completed, data/inst
system.cpu.dtb.stage2_mmu.stage2_tlb.walker.walks            0                       # Table walker walks requested
system.cpu.dtb.stage2_mmu.stage2_tlb.write_accesses            0                       # DTB write accesses
system.cpu.dtb.stage2_mmu.stage2_tlb.write_hits            0                       # DTB write hits
system.cpu.dtb.stage2_mmu.stage2_tlb.write_misses            0                       # DTB write misses
system.cpu.dtb.walker.walkRequestOrigin_Requested::Data            0                       # Table walker requests started/completed, data/inst
system.cpu.dtb.walker.walkRequestOrigin_Requested::Inst            0                       # Table walker requests started/completed, data/inst
system.cpu.dtb.walker.walkRequestOrigin_Requested::total            0                       # Table walker requests started/completed, data/inst
system.cpu.dtb.walker.walkRequestOrigin_Completed::Data            0                       # Table walker requests started/completed, data/inst
system.cpu.dtb.walker.walkRequestOrigin_Completed::Inst            0                       # Table walker requests started/completed, data/inst
system.cpu.dtb.walker.walkRequestOrigin_Completed::total            0                       # Table walker requests started/completed, data/inst
system.cpu.dtb.walker.walkRequestOrigin::total            0                       # Table walker requests started/completed, data/inst
system.cpu.dtb.walker.walks                         0                       # Table walker walks requested
system.cpu.dtb.write_accesses                       0                       # DTB write accesses
system.cpu.dtb.write_hits                           0                       # DTB write hits
system.cpu.dtb.write_misses                         0                       # DTB write misses
system.cpu.fetch2.amo_instructions                  0                       # Number of memory atomic instructions successfully decoded
system.cpu.fetch2.fp_instructions                   0                       # Number of floating point instructions successfully decoded
system.cpu.fetch2.int_instructions           49083037                       # Number of integer instructions successfully decoded
system.cpu.fetch2.load_instructions          17523560                       # Number of memory load instructions successfully decoded
system.cpu.fetch2.store_instructions         10083703                       # Number of memory store instructions successfully decoded
system.cpu.fetch2.vec_instructions                  0                       # Number of SIMD instructions successfully decoded
system.cpu.idleCycles                         3022647                       # Total number of cycles that the object has spent stopped
system.cpu.ipc                               0.911090                       # IPC: instructions per cycle
system.cpu.itb.accesses                             0                       # DTB accesses
system.cpu.itb.align_faults                         0                       # Number of TLB faults due to alignment restrictions
system.cpu.itb.domain_faults                        0                       # Number of TLB faults due to domain restrictions
system.cpu.itb.flush_entries                        0                       # Number of entries that have been flushed from TLB
system.cpu.itb.flush_tlb                            0                       # Number of times complete TLB was flushed
system.cpu.itb.flush_tlb_asid                       0                       # Number of times TLB was flushed by ASID
system.cpu.itb.flush_tlb_mva                        0                       # Number of times TLB was flushed by MVA
system.cpu.itb.flush_tlb_mva_asid                   0                       # Number of times TLB was flushed by MVA & ASID
system.cpu.itb.hits                                 0                       # DTB hits
system.cpu.itb.inst_accesses                        0                       # ITB inst accesses
system.cpu.itb.inst_hits                            0                       # ITB inst hits
system.cpu.itb.inst_misses                          0                       # ITB inst misses
system.cpu.itb.misses                               0                       # DTB misses
system.cpu.itb.perms_faults                         0                       # Number of TLB faults due to permissions restrictions
system.cpu.itb.prefetch_faults                      0                       # Number of TLB faults due to prefetch
system.cpu.itb.read_accesses                        0                       # DTB read accesses
system.cpu.itb.read_hits                            0                       # DTB read hits
system.cpu.itb.read_misses                          0                       # DTB read misses
system.cpu.itb.stage2_mmu.stage2_tlb.accesses            0                       # DTB accesses
system.cpu.itb.stage2_mmu.stage2_tlb.align_faults            0                       # Number of TLB faults due to alignment restrictions
system.cpu.itb.stage2_mmu.stage2_tlb.domain_faults            0                       # Number of TLB faults due to domain restrictions
system.cpu.itb.stage2_mmu.stage2_tlb.flush_entries            0                       # Number of entries that have been flushed from TLB
system.cpu.itb.stage2_mmu.stage2_tlb.flush_tlb            0                       # Number of times complete TLB was flushed
system.cpu.itb.stage2_mmu.stage2_tlb.flush_tlb_asid            0                       # Number of times TLB was flushed by ASID
system.cpu.itb.stage2_mmu.stage2_tlb.flush_tlb_mva            0                       # Number of times TLB was flushed by MVA
system.cpu.itb.stage2_mmu.stage2_tlb.flush_tlb_mva_asid            0                       # Number of times TLB was flushed by MVA & ASID
system.cpu.itb.stage2_mmu.stage2_tlb.hits            0                       # DTB hits
system.cpu.itb.stage2_mmu.stage2_tlb.inst_accesses            0                       # ITB inst accesses
system.cpu.itb.stage2_mmu.stage2_tlb.inst_hits            0                       # ITB inst hits
system.cpu.itb.stage2_mmu.stage2_tlb.inst_misses            0                       # ITB inst misses
system.cpu.itb.stage2_mmu.stage2_tlb.misses            0                       # DTB misses
system.cpu.itb.stage2_mmu.stage2_tlb.perms_faults            0                       # Number of TLB faults due to permissions restrictions
system.cpu.itb.stage2_mmu.stage2_tlb.prefetch_faults            0                       # Number of TLB faults due to prefetch
system.cpu.itb.stage2_mmu.stage2_tlb.read_accesses            0                       # DTB read accesses
system.cpu.itb.stage2_mmu.stage2_tlb.read_hits            0                       # DTB read hits
system.cpu.itb.stage2_mmu.stage2_tlb.read_misses            0                       # DTB read misses
system.cpu.itb.stage2_mmu.stage2_tlb.walker.walkRequestOrigin_Requested::Data            0                       # Table walker requests started/completed, data/inst
system.cpu.itb.stage2_mmu.stage2_tlb.walker.walkRequestOrigin_Requested::Inst            0                       # Table walker requests started/completed, data/inst
system.cpu.itb.stage2_mmu.stage2_tlb.walker.walkRequestOrigin_Requested::total            0                       # Table walker requests started/completed, data/inst
system.cpu.itb.stage2_mmu.stage2_tlb.walker.walkRequestOrigin_Completed::Data            0                       # Table walker requests started/completed, data/inst
system.cpu.itb.stage2_mmu.stage2_tlb.walker.walkRequestOrigin_Completed::Inst            0                       # Table walker requests started/completed, data/inst
system.cpu.itb.stage2_mmu.stage2_tlb.walker.walkRequestOrigin_Completed::total            0                       # Table walker requests started/completed, data/inst
system.cpu.itb.stage2_mmu.stage2_tlb.walker.walkRequestOrigin::total            0                       # Table walker requests started/completed, data/inst
system.cpu.itb.stage2_mmu.stage2_tlb.walker.walks            0                       # Table walker walks requested
system.cpu.itb.stage2_mmu.stage2_tlb.write_accesses            0                       # DTB write accesses
system.cpu.itb.stage2_mmu.stage2_tlb.write_hits            0                       # DTB write hits
system.cpu.itb.stage2_mmu.stage2_tlb.write_misses            0                       # DTB write misses
system.cpu.itb.walker.walkRequestOrigin_Requested::Data            0                       # Table walker requests started/completed, data/inst
system.cpu.itb.walker.walkRequestOrigin_Requested::Inst            0                       # Table walker requests started/completed, data/inst
system.cpu.itb.walker.walkRequestOrigin_Requested::total            0                       # Table walker requests started/completed, data/inst
system.cpu.itb.walker.walkRequestOrigin_Completed::Data            0                       # Table walker requests started/completed, data/inst
system.cpu.itb.walker.walkRequestOrigin_Completed::Inst            0                       # Table walker requests started/completed, data/inst
system.cpu.itb.walker.walkRequestOrigin_Completed::total            0                       # Table walker requests started/completed, data/inst
system.cpu.itb.walker.walkRequestOrigin::total            0                       # Table walker requests started/completed, data/inst
system.cpu.itb.walker.walks                         0                       # Table walker walks requested
system.cpu.itb.write_accesses                       0                       # DTB write accesses
system.cpu.itb.write_hits                           0                       # DTB write hits
system.cpu.itb.write_misses                         0                       # DTB write misses
system.cpu.numCycles                        109758667                       # number of cpu cycles simulated
system.cpu.numFetchSuspends                         0                       # Number of times Execute suspended instruction fetching
system.cpu.numWorkItemsCompleted                    0                       # number of work items this cpu completed
system.cpu.numWorkItemsStarted                      0                       # number of work items this cpu started
system.cpu.op_class_0::No_OpClass                   0      0.00%      0.00% # Class of committed instruction
system.cpu.op_class_0::IntAlu                72223173     66.18%     66.18% # Class of committed instruction
system.cpu.op_class_0::IntMult                 547032      0.50%     66.68% # Class of committed instruction
system.cpu.op_class_0::IntDiv                       0      0.00%     66.68% # Class of committed instruction
system.cpu.op_class_0::FloatAdd                     0      0.00%     66.68% # Class of committed instruction
system.cpu.op_class_0::FloatCmp                     0      0.00%     66.68% # Class of committed instruction
system.cpu.op_class_0::FloatCvt                     0      0.00%     66.68% # Class of committed instruction
system.cpu.op_class_0::FloatMult                    0      0.00%     66.68% # Class of committed instruction
system.cpu.op_class_0::FloatMultAcc                 0      0.00%     66.68% # Class of committed instruction
system.cpu.op_class_0::FloatDiv                     0      0.00%     66.68% # Class of committed instruction
system.cpu.op_class_0::FloatMisc                    0      0.00%     66.68% # Class of committed instruction
system.cpu.op_class_0::FloatSqrt                    0      0.00%     66.68% # Class of committed instruction
system.cpu.op_class_0::SimdAdd                 231656      0.21%     66.89% # Class of committed instruction
system.cpu.op_class_0::SimdAddAcc                   0      0.00%     66.89% # Class of committed instruction
system.cpu.op_class_0::SimdAlu                 148482      0.14%     67.02% # Class of committed instruction
system.cpu.op_class_0::SimdCmp                 115828      0.11%     67.13% # Class of committed instruction
system.cpu.op_class_0::SimdCvt                      0      0.00%     67.13% # Class of committed instruction
system.cpu.op_class_0::SimdMisc                 42808      0.04%     67.17% # Class of committed instruction
system.cpu.op_class_0::SimdMult                     0      0.00%     67.17% # Class of committed instruction
system.cpu.op_class_0::SimdMultAcc                  0      0.00%     67.17% # Class of committed instruction
system.cpu.op_class_0::SimdShift                    0      0.00%     67.17% # Class of committed instruction
system.cpu.op_class_0::SimdShiftAcc                 0      0.00%     67.17% # Class of committed instruction
system.cpu.op_class_0::SimdDiv                      0      0.00%     67.17% # Class of committed instruction
system.cpu.op_class_0::SimdSqrt                     0      0.00%     67.17% # Class of committed instruction
system.cpu.op_class_0::SimdFloatAdd                 0      0.00%     67.17% # Class of committed instruction
system.cpu.op_class_0::SimdFloatAlu                 0      0.00%     67.17% # Class of committed instruction
system.cpu.op_class_0::SimdFloatCmp                 0      0.00%     67.17% # Class of committed instruction
system.cpu.op_class_0::SimdFloatCvt                 0      0.00%     67.17% # Class of committed instruction
system.cpu.op_class_0::SimdFloatDiv                 0      0.00%     67.17% # Class of committed instruction
system.cpu.op_class_0::SimdFloatMisc           159857      0.15%     67.32% # Class of committed instruction
system.cpu.op_class_0::SimdFloatMult                0      0.00%     67.32% # Class of committed instruction
system.cpu.op_class_0::SimdFloatMultAcc             0      0.00%     67.32% # Class of committed instruction
system.cpu.op_class_0::SimdFloatSqrt                0      0.00%     67.32% # Class of committed instruction
system.cpu.op_class_0::SimdReduceAdd                0      0.00%     67.32% # Class of committed instruction
system.cpu.op_class_0::SimdReduceAlu                0      0.00%     67.32% # Class of committed instruction
system.cpu.op_class_0::SimdReduceCmp                0      0.00%     67.32% # Class of committed instruction
system.cpu.op_class_0::SimdFloatReduceAdd            0      0.00%     67.32% # Class of committed instruction
system.cpu.op_class_0::SimdFloatReduceCmp            0      0.00%     67.32% # Class of committed instruction
system.cpu.op_class_0::SimdAes                      0      0.00%     67.32% # Class of committed instruction
system.cpu.op_class_0::SimdAesMix                   0      0.00%     67.32% # Class of committed instruction
system.cpu.op_class_0::SimdSha1Hash                 0      0.00%     67.32% # Class of committed instruction
system.cpu.op_class_0::SimdSha1Hash2                0      0.00%     67.32% # Class of committed instruction
system.cpu.op_class_0::SimdSha256Hash               0      0.00%     67.32% # Class of committed instruction
system.cpu.op_class_0::SimdSha256Hash2              0      0.00%     67.32% # Class of committed instruction
system.cpu.op_class_0::SimdShaSigma2                0      0.00%     67.32% # Class of committed instruction
system.cpu.op_class_0::SimdShaSigma3                0      0.00%     67.32% # Class of committed instruction
system.cpu.op_class_0::SimdPredAlu                  0      0.00%     67.32% # Class of committed instruction
system.cpu.op_class_0::MemRead               20932798     19.18%     86.50% # Class of committed instruction
system.cpu.op_class_0::MemWrite              14737790     13.50%    100.00% # Class of committed instruction
system.cpu.op_class_0::FloatMemRead                 0      0.00%    100.00% # Class of committed instruction
system.cpu.op_class_0::FloatMemWrite                0      0.00%    100.00% # Class of committed instruction
system.cpu.op_class_0::IprAccess                    0      0.00%    100.00% # Class of committed instruction
system.cpu.op_class_0::InstPrefetch                 0      0.00%    100.00% # Class of committed instruction
system.cpu.op_class_0::total                109139424                       # Class of committed instruction
system.cpu.tickCycles                       106736020                       # Number of cycles that the object actually ticked
system.cpu.workload.numSyscalls                    85                       # Number of system calls
system.membus.snoop_filter.hit_multi_requests            0                       # Number of requests hitting in the snoop filter with multiple (>1) holders of the requested data.
system.membus.snoop_filter.hit_multi_snoops            0                       # Number of snoops hitting in the snoop filter with multiple (>1) holders of the requested data.
system.membus.snoop_filter.hit_single_requests         5692                       # Number of requests hitting in the snoop filter with a single holder of the requested data.
system.membus.snoop_filter.hit_single_snoops            0                       # Number of snoops hitting in the snoop filter with a single holder of the requested data.
system.membus.snoop_filter.tot_requests         44525                       # Total number of requests made to the snoop filter.
system.membus.snoop_filter.tot_snoops               0                       # Total number of snoops made to the snoop filter.
system.tol2bus.snoop_filter.hit_multi_requests         3204                       # Number of requests hitting in the snoop filter with multiple (>1) holders of the requested data.
system.tol2bus.snoop_filter.hit_multi_snoops            0                       # Number of snoops hitting in the snoop filter with multiple (>1) holders of the requested data.
system.tol2bus.snoop_filter.hit_single_requests        80314                       # Number of requests hitting in the snoop filter with a single holder of the requested data.
system.tol2bus.snoop_filter.hit_single_snoops          375                       # Number of snoops hitting in the snoop filter with a single holder of the requested data.
system.tol2bus.snoop_filter.tot_requests       161268                       # Total number of requests made to the snoop filter.
system.tol2bus.snoop_filter.tot_snoops            375                       # Total number of snoops made to the snoop filter.
system.membus.pwrStateResidencyTicks::UNDEFINED 109758667000                       # Cumulative time (in ticks) in various power states
system.membus.trans_dist::ReadResp                893                       # Transaction distribution
system.membus.trans_dist::WritebackDirty         5524                       # Transaction distribution
system.membus.trans_dist::CleanEvict              168                       # Transaction distribution
system.membus.trans_dist::ReadExReq             37940                       # Transaction distribution
system.membus.trans_dist::ReadExResp            37940                       # Transaction distribution
system.membus.trans_dist::ReadSharedReq           893                       # Transaction distribution
system.membus.pkt_count_system.l2.mem_side::system.mem_ctrls.port        83358                       # Packet count per connected master and slave (bytes)
system.membus.pkt_count::total                  83358                       # Packet count per connected master and slave (bytes)
system.membus.pkt_size_system.l2.mem_side::system.mem_ctrls.port      2838848                       # Cumulative packet size per connected master and slave (bytes)
system.membus.pkt_size::total                 2838848                       # Cumulative packet size per connected master and slave (bytes)
system.membus.snoops                                0                       # Total snoops (count)
system.membus.snoopTraffic                          0                       # Total snoop traffic (bytes)
system.membus.snoop_fanout::samples             38833                       # Request fanout histogram
system.membus.snoop_fanout::mean                    0                       # Request fanout histogram
system.membus.snoop_fanout::stdev                   0                       # Request fanout histogram
system.membus.snoop_fanout::underflows              0      0.00%      0.00% # Request fanout histogram
system.membus.snoop_fanout::0                   38833    100.00%    100.00% # Request fanout histogram
system.membus.snoop_fanout::1                       0      0.00%    100.00% # Request fanout histogram
system.membus.snoop_fanout::overflows               0      0.00%    100.00% # Request fanout histogram
system.membus.snoop_fanout::min_value               0                       # Request fanout histogram
system.membus.snoop_fanout::max_value               0                       # Request fanout histogram
system.membus.snoop_fanout::total               38833                       # Request fanout histogram
system.membus.respLayer1.occupancy          208603750                       # Layer occupancy (ticks)
system.membus.respLayer1.utilization              0.2                       # Layer utilization (%)
system.membus.reqLayer0.occupancy            66621000                       # Layer occupancy (ticks)
system.membus.reqLayer0.utilization               0.1                       # Layer utilization (%)
system.tol2bus.pwrStateResidencyTicks::UNDEFINED 109758667000                       # Cumulative time (in ticks) in various power states
system.tol2bus.trans_dist::ReadResp             39716                       # Transaction distribution
system.tol2bus.trans_dist::WritebackDirty        68092                       # Transaction distribution
system.tol2bus.trans_dist::WritebackClean          610                       # Transaction distribution
system.tol2bus.trans_dist::CleanEvict           17677                       # Transaction distribution
system.tol2bus.trans_dist::ReadExReq            41240                       # Transaction distribution
system.tol2bus.trans_dist::ReadExResp           41240                       # Transaction distribution
system.tol2bus.trans_dist::ReadCleanReq           998                       # Transaction distribution
system.tol2bus.trans_dist::ReadSharedReq        38718                       # Transaction distribution
system.tol2bus.pkt_count_system.cpu.icache.mem_side::system.l2.cpu_side         2606                       # Packet count per connected master and slave (bytes)
system.tol2bus.pkt_count_system.cpu.dcache.mem_side::system.l2.cpu_side       239618                       # Packet count per connected master and slave (bytes)
system.tol2bus.pkt_count::total                242224                       # Packet count per connected master and slave (bytes)
system.tol2bus.pkt_size_system.cpu.icache.mem_side::system.l2.cpu_side       102912                       # Cumulative packet size per connected master and slave (bytes)
system.tol2bus.pkt_size_system.cpu.dcache.mem_side::system.l2.cpu_side      9121664                       # Cumulative packet size per connected master and slave (bytes)
system.tol2bus.pkt_size::total                9224576                       # Cumulative packet size per connected master and slave (bytes)
system.tol2bus.snoops                            6067                       # Total snoops (count)
system.tol2bus.snoopTraffic                    353536                       # Total snoop traffic (bytes)
system.tol2bus.snoop_fanout::samples            87023                       # Request fanout histogram
system.tol2bus.snoop_fanout::mean            0.041150                       # Request fanout histogram
system.tol2bus.snoop_fanout::stdev           0.198638                       # Request fanout histogram
system.tol2bus.snoop_fanout::underflows             0      0.00%      0.00% # Request fanout histogram
system.tol2bus.snoop_fanout::0                  83442     95.88%     95.88% # Request fanout histogram
system.tol2bus.snoop_fanout::1                   3581      4.12%    100.00% # Request fanout histogram
system.tol2bus.snoop_fanout::2                      0      0.00%    100.00% # Request fanout histogram
system.tol2bus.snoop_fanout::overflows              0      0.00%    100.00% # Request fanout histogram
system.tol2bus.snoop_fanout::min_value              0                       # Request fanout histogram
system.tol2bus.snoop_fanout::max_value              1                       # Request fanout histogram
system.tol2bus.snoop_fanout::total              87023                       # Request fanout histogram
system.tol2bus.reqLayer0.occupancy          287624000                       # Layer occupancy (ticks)
system.tol2bus.reqLayer0.utilization              0.3                       # Layer utilization (%)
system.tol2bus.respLayer1.occupancy         239874999                       # Layer occupancy (ticks)
system.tol2bus.respLayer1.utilization             0.2                       # Layer utilization (%)
system.tol2bus.respLayer0.occupancy           2994999                       # Layer occupancy (ticks)
system.tol2bus.respLayer0.utilization             0.0                       # Layer utilization (%)
system.voltage_domain.voltage                       1                       # Voltage in Volts
system.clk_domain.clock                          1000                       # Clock period in ticks
system.l2.pwrStateResidencyTicks::UNDEFINED 109758667000                       # Cumulative time (in ticks) in various power states
system.l2.demand_hits::.cpu.inst                  491                       # number of demand (read+write) hits
system.l2.demand_hits::.cpu.data                41630                       # number of demand (read+write) hits
system.l2.demand_hits::total                    42121                       # number of demand (read+write) hits
system.l2.overall_hits::.cpu.inst                 491                       # number of overall hits
system.l2.overall_hits::.cpu.data               41630                       # number of overall hits
system.l2.overall_hits::total                   42121                       # number of overall hits
system.l2.demand_misses::.cpu.inst                507                       # number of demand (read+write) misses
system.l2.demand_misses::.cpu.data              38328                       # number of demand (read+write) misses
system.l2.demand_misses::total                  38835                       # number of demand (read+write) misses
system.l2.overall_misses::.cpu.inst               507                       # number of overall misses
system.l2.overall_misses::.cpu.data             38328                       # number of overall misses
system.l2.overall_misses::total                 38835                       # number of overall misses
system.l2.demand_miss_latency::.cpu.inst     48763000                       # number of demand (read+write) miss cycles
system.l2.demand_miss_latency::.cpu.data   4216840000                       # number of demand (read+write) miss cycles
system.l2.demand_miss_latency::total       4265603000                       # number of demand (read+write) miss cycles
system.l2.overall_miss_latency::.cpu.inst     48763000                       # number of overall miss cycles
system.l2.overall_miss_latency::.cpu.data   4216840000                       # number of overall miss cycles
system.l2.overall_miss_latency::total      4265603000                       # number of overall miss cycles
system.l2.demand_accesses::.cpu.inst              998                       # number of demand (read+write) accesses
system.l2.demand_accesses::.cpu.data            79958                       # number of demand (read+write) accesses
system.l2.demand_accesses::total                80956                       # number of demand (read+write) accesses
system.l2.overall_accesses::.cpu.inst             998                       # number of overall (read+write) accesses
system.l2.overall_accesses::.cpu.data           79958                       # number of overall (read+write) accesses
system.l2.overall_accesses::total               80956                       # number of overall (read+write) accesses
system.l2.demand_miss_rate::.cpu.inst        0.508016                       # miss rate for demand accesses
system.l2.demand_miss_rate::.cpu.data        0.479352                       # miss rate for demand accesses
system.l2.demand_miss_rate::total            0.479705                       # miss rate for demand accesses
system.l2.overall_miss_rate::.cpu.inst       0.508016                       # miss rate for overall accesses
system.l2.overall_miss_rate::.cpu.data       0.479352                       # miss rate for overall accesses
system.l2.overall_miss_rate::total           0.479705                       # miss rate for overall accesses
system.l2.demand_avg_miss_latency::.cpu.inst 96179.487179                       # average overall miss latency
system.l2.demand_avg_miss_latency::.cpu.data 110019.828846                       # average overall miss latency
system.l2.demand_avg_miss_latency::total 109839.139951                       # average overall miss latency
system.l2.overall_avg_miss_latency::.cpu.inst 96179.487179                       # average overall miss latency
system.l2.overall_avg_miss_latency::.cpu.data 110019.828846                       # average overall miss latency
system.l2.overall_avg_miss_latency::total 109839.139951                       # average overall miss latency
system.l2.blocked_cycles::no_mshrs                  0                       # number of cycles access was blocked
system.l2.blocked_cycles::no_targets                0                       # number of cycles access was blocked
system.l2.blocked::no_mshrs                         0                       # number of cycles access was blocked
system.l2.blocked::no_targets                       0                       # number of cycles access was blocked
system.l2.avg_blocked_cycles::no_mshrs            nan                       # average number of cycles each access was blocked
system.l2.avg_blocked_cycles::no_targets          nan                       # average number of cycles each access was blocked
system.l2.writebacks::.writebacks                5524                       # number of writebacks
system.l2.writebacks::total                      5524                       # number of writebacks
system.l2.demand_mshr_hits::.cpu.inst               1                       # number of demand (read+write) MSHR hits
system.l2.demand_mshr_hits::.cpu.data               1                       # number of demand (read+write) MSHR hits
system.l2.demand_mshr_hits::total                   2                       # number of demand (read+write) MSHR hits
system.l2.overall_mshr_hits::.cpu.inst              1                       # number of overall MSHR hits
system.l2.overall_mshr_hits::.cpu.data              1                       # number of overall MSHR hits
system.l2.overall_mshr_hits::total                  2                       # number of overall MSHR hits
system.l2.demand_mshr_misses::.cpu.inst           506                       # number of demand (read+write) MSHR misses
system.l2.demand_mshr_misses::.cpu.data         38327                       # number of demand (read+write) MSHR misses
system.l2.demand_mshr_misses::total             38833                       # number of demand (read+write) MSHR misses
system.l2.overall_mshr_misses::.cpu.inst          506                       # number of overall MSHR misses
system.l2.overall_mshr_misses::.cpu.data        38327                       # number of overall MSHR misses
system.l2.overall_mshr_misses::total            38833                       # number of overall MSHR misses
system.l2.demand_mshr_miss_latency::.cpu.inst     38569000                       # number of demand (read+write) MSHR miss cycles
system.l2.demand_mshr_miss_latency::.cpu.data   3450213000                       # number of demand (read+write) MSHR miss cycles
system.l2.demand_mshr_miss_latency::total   3488782000                       # number of demand (read+write) MSHR miss cycles
system.l2.overall_mshr_miss_latency::.cpu.inst     38569000                       # number of overall MSHR miss cycles
system.l2.overall_mshr_miss_latency::.cpu.data   3450213000                       # number of overall MSHR miss cycles
system.l2.overall_mshr_miss_latency::total   3488782000                       # number of overall MSHR miss cycles
system.l2.demand_mshr_miss_rate::.cpu.inst     0.507014                       # mshr miss rate for demand accesses
system.l2.demand_mshr_miss_rate::.cpu.data     0.479339                       # mshr miss rate for demand accesses
system.l2.demand_mshr_miss_rate::total       0.479680                       # mshr miss rate for demand accesses
system.l2.overall_mshr_miss_rate::.cpu.inst     0.507014                       # mshr miss rate for overall accesses
system.l2.overall_mshr_miss_rate::.cpu.data     0.479339                       # mshr miss rate for overall accesses
system.l2.overall_mshr_miss_rate::total      0.479680                       # mshr miss rate for overall accesses
system.l2.demand_avg_mshr_miss_latency::.cpu.inst 76223.320158                       # average overall mshr miss latency
system.l2.demand_avg_mshr_miss_latency::.cpu.data 90020.429462                       # average overall mshr miss latency
system.l2.demand_avg_mshr_miss_latency::total 89840.650993                       # average overall mshr miss latency
system.l2.overall_avg_mshr_miss_latency::.cpu.inst 76223.320158                       # average overall mshr miss latency
system.l2.overall_avg_mshr_miss_latency::.cpu.data 90020.429462                       # average overall mshr miss latency
system.l2.overall_avg_mshr_miss_latency::total 89840.650993                       # average overall mshr miss latency
system.l2.replacements                           6067                       # number of replacements
system.l2.WritebackDirty_hits::.writebacks        62568                       # number of WritebackDirty hits
system.l2.WritebackDirty_hits::total            62568                       # number of WritebackDirty hits
system.l2.WritebackDirty_accesses::.writebacks        62568                       # number of WritebackDirty accesses(hits+misses)
system.l2.WritebackDirty_accesses::total        62568                       # number of WritebackDirty accesses(hits+misses)
system.l2.WritebackClean_hits::.writebacks          606                       # number of WritebackClean hits
system.l2.WritebackClean_hits::total              606                       # number of WritebackClean hits
system.l2.WritebackClean_accesses::.writebacks          606                       # number of WritebackClean accesses(hits+misses)
system.l2.WritebackClean_accesses::total          606                       # number of WritebackClean accesses(hits+misses)
system.l2.ReadExReq_hits::.cpu.data              3300                       # number of ReadExReq hits
system.l2.ReadExReq_hits::total                  3300                       # number of ReadExReq hits
system.l2.ReadExReq_misses::.cpu.data           37940                       # number of ReadExReq misses
system.l2.ReadExReq_misses::total               37940                       # number of ReadExReq misses
system.l2.ReadExReq_miss_latency::.cpu.data   4174389000                       # number of ReadExReq miss cycles
system.l2.ReadExReq_miss_latency::total    4174389000                       # number of ReadExReq miss cycles
system.l2.ReadExReq_accesses::.cpu.data         41240                       # number of ReadExReq accesses(hits+misses)
system.l2.ReadExReq_accesses::total             41240                       # number of ReadExReq accesses(hits+misses)
system.l2.ReadExReq_miss_rate::.cpu.data     0.919981                       # miss rate for ReadExReq accesses
system.l2.ReadExReq_miss_rate::total         0.919981                       # miss rate for ReadExReq accesses
system.l2.ReadExReq_avg_miss_latency::.cpu.data 110026.067475                       # average ReadExReq miss latency
system.l2.ReadExReq_avg_miss_latency::total 110026.067475                       # average ReadExReq miss latency
system.l2.ReadExReq_mshr_misses::.cpu.data        37940                       # number of ReadExReq MSHR misses
system.l2.ReadExReq_mshr_misses::total          37940                       # number of ReadExReq MSHR misses
system.l2.ReadExReq_mshr_miss_latency::.cpu.data   3415589000                       # number of ReadExReq MSHR miss cycles
system.l2.ReadExReq_mshr_miss_latency::total   3415589000                       # number of ReadExReq MSHR miss cycles
system.l2.ReadExReq_mshr_miss_rate::.cpu.data     0.919981                       # mshr miss rate for ReadExReq accesses
system.l2.ReadExReq_mshr_miss_rate::total     0.919981                       # mshr miss rate for ReadExReq accesses
system.l2.ReadExReq_avg_mshr_miss_latency::.cpu.data 90026.067475                       # average ReadExReq mshr miss latency
system.l2.ReadExReq_avg_mshr_miss_latency::total 90026.067475                       # average ReadExReq mshr miss latency
system.l2.ReadCleanReq_hits::.cpu.inst            491                       # number of ReadCleanReq hits
system.l2.ReadCleanReq_hits::total                491                       # number of ReadCleanReq hits
system.l2.ReadCleanReq_misses::.cpu.inst          507                       # number of ReadCleanReq misses
system.l2.ReadCleanReq_misses::total              507                       # number of ReadCleanReq misses
system.l2.ReadCleanReq_miss_latency::.cpu.inst     48763000                       # number of ReadCleanReq miss cycles
system.l2.ReadCleanReq_miss_latency::total     48763000                       # number of ReadCleanReq miss cycles
system.l2.ReadCleanReq_accesses::.cpu.inst          998                       # number of ReadCleanReq accesses(hits+misses)
system.l2.ReadCleanReq_accesses::total            998                       # number of ReadCleanReq accesses(hits+misses)
system.l2.ReadCleanReq_miss_rate::.cpu.inst     0.508016                       # miss rate for ReadCleanReq accesses
system.l2.ReadCleanReq_miss_rate::total      0.508016                       # miss rate for ReadCleanReq accesses
system.l2.ReadCleanReq_avg_miss_latency::.cpu.inst 96179.487179                       # average ReadCleanReq miss latency
system.l2.ReadCleanReq_avg_miss_latency::total 96179.487179                       # average ReadCleanReq miss latency
system.l2.ReadCleanReq_mshr_hits::.cpu.inst            1                       # number of ReadCleanReq MSHR hits
system.l2.ReadCleanReq_mshr_hits::total             1                       # number of ReadCleanReq MSHR hits
system.l2.ReadCleanReq_mshr_misses::.cpu.inst          506                       # number of ReadCleanReq MSHR misses
system.l2.ReadCleanReq_mshr_misses::total          506                       # number of ReadCleanReq MSHR misses
system.l2.ReadCleanReq_mshr_miss_latency::.cpu.inst     38569000                       # number of ReadCleanReq MSHR miss cycles
system.l2.ReadCleanReq_mshr_miss_latency::total     38569000                       # number of ReadCleanReq MSHR miss cycles
system.l2.ReadCleanReq_mshr_miss_rate::.cpu.inst     0.507014                       # mshr miss rate for ReadCleanReq accesses
system.l2.ReadCleanReq_mshr_miss_rate::total     0.507014                       # mshr miss rate for ReadCleanReq accesses
system.l2.ReadCleanReq_avg_mshr_miss_latency::.cpu.inst 76223.320158                       # average ReadCleanReq mshr miss latency
system.l2.ReadCleanReq_avg_mshr_miss_latency::total 76223.320158                       # average ReadCleanReq mshr miss latency
system.l2.ReadSharedReq_hits::.cpu.data         38330                       # number of ReadSharedReq hits
system.l2.ReadSharedReq_hits::total             38330                       # number of ReadSharedReq hits
system.l2.ReadSharedReq_misses::.cpu.data          388                       # number of ReadSharedReq misses
system.l2.ReadSharedReq_misses::total             388                       # number of ReadSharedReq misses
system.l2.ReadSharedReq_miss_latency::.cpu.data     42451000                       # number of ReadSharedReq miss cycles
system.l2.ReadSharedReq_miss_latency::total     42451000                       # number of ReadSharedReq miss cycles
system.l2.ReadSharedReq_accesses::.cpu.data        38718                       # number of ReadSharedReq accesses(hits+misses)
system.l2.ReadSharedReq_accesses::total         38718                       # number of ReadSharedReq accesses(hits+misses)
system.l2.ReadSharedReq_miss_rate::.cpu.data     0.010021                       # miss rate for ReadSharedReq accesses
system.l2.ReadSharedReq_miss_rate::total     0.010021                       # miss rate for ReadSharedReq accesses
system.l2.ReadSharedReq_avg_miss_latency::.cpu.data 109409.793814                       # average ReadSharedReq miss latency
system.l2.ReadSharedReq_avg_miss_latency::total 109409.793814                       # average ReadSharedReq miss latency
system.l2.ReadSharedReq_mshr_hits::.cpu.data            1                       # number of ReadSharedReq MSHR hits
system.l2.ReadSharedReq_mshr_hits::total            1                       # number of ReadSharedReq MSHR hits
system.l2.ReadSharedReq_mshr_misses::.cpu.data          387                       # number of ReadSharedReq MSHR misses
system.l2.ReadSharedReq_mshr_misses::total          387                       # number of ReadSharedReq MSHR misses
system.l2.ReadSharedReq_mshr_miss_latency::.cpu.data     34624000                       # number of ReadSharedReq MSHR miss cycles
system.l2.ReadSharedReq_mshr_miss_latency::total     34624000                       # number of ReadSharedReq MSHR miss cycles
system.l2.ReadSharedReq_mshr_miss_rate::.cpu.data     0.009995                       # mshr miss rate for ReadSharedReq accesses
system.l2.ReadSharedReq_mshr_miss_rate::total     0.009995                       # mshr miss rate for ReadSharedReq accesses
system.l2.ReadSharedReq_avg_mshr_miss_latency::.cpu.data 89467.700258                       # average ReadSharedReq mshr miss latency
system.l2.ReadSharedReq_avg_mshr_miss_latency::total 89467.700258                       # average ReadSharedReq mshr miss latency
system.l2.tags.pwrStateResidencyTicks::UNDEFINED 109758667000                       # Cumulative time (in ticks) in various power states
system.l2.tags.tagsinuse                 25865.114179                       # Cycle average of tags in use
system.l2.tags.total_refs                      158062                       # Total number of references to valid blocks.
system.l2.tags.sampled_refs                     38835                       # Sample count of references to valid blocks.
system.l2.tags.avg_refs                      4.070091                       # Average number of references to valid blocks.
system.l2.tags.warmup_cycle                     87000                       # Cycle when the warmup percentage was hit.
system.l2.tags.occ_blocks::.writebacks       0.782285                       # Average occupied blocks per requestor
system.l2.tags.occ_blocks::.cpu.inst       318.363466                       # Average occupied blocks per requestor
system.l2.tags.occ_blocks::.cpu.data     25545.968427                       # Average occupied blocks per requestor
system.l2.tags.occ_percent::.writebacks      0.000024                       # Average percentage of cache occupancy
system.l2.tags.occ_percent::.cpu.inst        0.009716                       # Average percentage of cache occupancy
system.l2.tags.occ_percent::.cpu.data        0.779601                       # Average percentage of cache occupancy
system.l2.tags.occ_percent::total            0.789341                       # Average percentage of cache occupancy
system.l2.tags.occ_task_id_blocks::1024         32768                       # Occupied blocks per task id
system.l2.tags.age_task_id_blocks_1024::0            2                       # Occupied blocks per task id
system.l2.tags.age_task_id_blocks_1024::1           17                       # Occupied blocks per task id
system.l2.tags.age_task_id_blocks_1024::2          190                       # Occupied blocks per task id
system.l2.tags.age_task_id_blocks_1024::3         1852                       # Occupied blocks per task id
system.l2.tags.age_task_id_blocks_1024::4        30707                       # Occupied blocks per task id
system.l2.tags.occ_task_id_percent::1024            1                       # Percentage of cache occupancy per task id
system.l2.tags.tag_accesses                   1303347                       # Number of tag accesses
system.l2.tags.data_accesses                  1303347                       # Number of data accesses
system.cpu_voltage_domain.voltage                   1                       # Voltage in Volts
system.mem_ctrls.pwrStateResidencyTicks::UNDEFINED 109758667000                       # Cumulative time (in ticks) in various power states
system.mem_ctrls.bytes_read::.cpu.inst          32384                       # Number of bytes read from this memory
system.mem_ctrls.bytes_read::.cpu.data        2452928                       # Number of bytes read from this memory
system.mem_ctrls.bytes_read::total            2485312                       # Number of bytes read from this memory
system.mem_ctrls.bytes_inst_read::.cpu.inst        32384                       # Number of instructions bytes read from this memory
system.mem_ctrls.bytes_inst_read::total         32384                       # Number of instructions bytes read from this memory
system.mem_ctrls.bytes_written::.writebacks       353536                       # Number of bytes written to this memory
system.mem_ctrls.bytes_written::total          353536                       # Number of bytes written to this memory
system.mem_ctrls.num_reads::.cpu.inst             506                       # Number of read requests responded to by this memory
system.mem_ctrls.num_reads::.cpu.data           38327                       # Number of read requests responded to by this memory
system.mem_ctrls.num_reads::total               38833                       # Number of read requests responded to by this memory
system.mem_ctrls.num_writes::.writebacks         5524                       # Number of write requests responded to by this memory
system.mem_ctrls.num_writes::total               5524                       # Number of write requests responded to by this memory
system.mem_ctrls.bw_read::.cpu.inst            295047                       # Total read bandwidth from this memory (bytes/s)
system.mem_ctrls.bw_read::.cpu.data          22348376                       # Total read bandwidth from this memory (bytes/s)
system.mem_ctrls.bw_read::total              22643424                       # Total read bandwidth from this memory (bytes/s)
system.mem_ctrls.bw_inst_read::.cpu.inst       295047                       # Instruction read bandwidth from this memory (bytes/s)
system.mem_ctrls.bw_inst_read::total           295047                       # Instruction read bandwidth from this memory (bytes/s)
system.mem_ctrls.bw_write::.writebacks        3221030                       # Write bandwidth from this memory (bytes/s)
system.mem_ctrls.bw_write::total              3221030                       # Write bandwidth from this memory (bytes/s)
system.mem_ctrls.bw_total::.writebacks        3221030                       # Total bandwidth to/from this memory (bytes/s)
system.mem_ctrls.bw_total::.cpu.inst           295047                       # Total bandwidth to/from this memory (bytes/s)
system.mem_ctrls.bw_total::.cpu.data         22348376                       # Total bandwidth to/from this memory (bytes/s)
system.mem_ctrls.bw_total::total             25864454                       # Total bandwidth to/from this memory (bytes/s)
system.mem_ctrls.avgPriority_.writebacks::samples      5524.00                       # Average QoS priority value for accepted requests
system.mem_ctrls.avgPriority_.cpu.inst::samples       506.00                       # Average QoS priority value for accepted requests
system.mem_ctrls.avgPriority_.cpu.data::samples     38326.00                       # Average QoS priority value for accepted requests
system.mem_ctrls.priorityMinLatency      0.000000018750                       # per QoS priority minimum request to response latency (s)
system.mem_ctrls.priorityMaxLatency      0.040612988500                       # per QoS priority maximum request to response latency (s)
system.mem_ctrls.numReadWriteTurnArounds          305                       # Number of turnarounds from READ to WRITE
system.mem_ctrls.numWriteReadTurnArounds          305                       # Number of turnarounds from WRITE to READ
system.mem_ctrls.numStayReadState              111369                       # Number of times bus staying in READ state
system.mem_ctrls.numStayWriteState               5193                       # Number of times bus staying in WRITE state
system.mem_ctrls.readReqs                       38833                       # Number of read requests accepted
system.mem_ctrls.writeReqs                       5524                       # Number of write requests accepted
system.mem_ctrls.readBursts                     38833                       # Number of DRAM read bursts, including those serviced by the write queue
system.mem_ctrls.writeBursts                     5524                       # Number of DRAM write bursts, including those merged in the write queue
system.mem_ctrls.servicedByWrQ                      1                       # Number of DRAM read bursts serviced by the write queue
system.mem_ctrls.mergedWrBursts                     0                       # Number of DRAM write bursts merged with an existing one
system.mem_ctrls.neitherReadNorWriteReqs            0                       # Number of requests that are neither read nor write
system.mem_ctrls.perBankRdBursts::0              2373                       # Per bank write bursts
system.mem_ctrls.perBankRdBursts::1              2356                       # Per bank write bursts
system.mem_ctrls.perBankRdBursts::2              2526                       # Per bank write bursts
system.mem_ctrls.perBankRdBursts::3              2678                       # Per bank write bursts
system.mem_ctrls.perBankRdBursts::4              2527                       # Per bank write bursts
system.mem_ctrls.perBankRdBursts::5              2491                       # Per bank write bursts
system.mem_ctrls.perBankRdBursts::6              2470                       # Per bank write bursts
system.mem_ctrls.perBankRdBursts::7              2513                       # Per bank write bursts
system.mem_ctrls.perBankRdBursts::8              2480                       # Per bank write bursts
system.mem_ctrls.perBankRdBursts::9              2336                       # Per bank write bursts
system.mem_ctrls.perBankRdBursts::10             2383                       # Per bank write bursts
system.mem_ctrls.perBankRdBursts::11             2335                       # Per bank write bursts
system.mem_ctrls.perBankRdBursts::12             2315                       # Per bank write bursts
system.mem_ctrls.perBankRdBursts::13             2359                       # Per bank write bursts
system.mem_ctrls.perBankRdBursts::14             2335                       # Per bank write bursts
system.mem_ctrls.perBankRdBursts::15             2355                       # Per bank write bursts
system.mem_ctrls.perBankWrBursts::0               282                       # Per bank write bursts
system.mem_ctrls.perBankWrBursts::1               276                       # Per bank write bursts
system.mem_ctrls.perBankWrBursts::2               467                       # Per bank write bursts
system.mem_ctrls.perBankWrBursts::3               591                       # Per bank write bursts
system.mem_ctrls.perBankWrBursts::4               403                       # Per bank write bursts
system.mem_ctrls.perBankWrBursts::5               393                       # Per bank write bursts
system.mem_ctrls.perBankWrBursts::6               392                       # Per bank write bursts
system.mem_ctrls.perBankWrBursts::7               396                       # Per bank write bursts
system.mem_ctrls.perBankWrBursts::8               355                       # Per bank write bursts
system.mem_ctrls.perBankWrBursts::9               270                       # Per bank write bursts
system.mem_ctrls.perBankWrBursts::10              267                       # Per bank write bursts
system.mem_ctrls.perBankWrBursts::11              269                       # Per bank write bursts
system.mem_ctrls.perBankWrBursts::12              267                       # Per bank write bursts
system.mem_ctrls.perBankWrBursts::13              296                       # Per bank write bursts
system.mem_ctrls.perBankWrBursts::14              279                       # Per bank write bursts
system.mem_ctrls.perBankWrBursts::15              292                       # Per bank write bursts
system.mem_ctrls.avgRdQLen                       1.00                       # Average read queue length when enqueuing
system.mem_ctrls.avgWrQLen                      12.44                       # Average write queue length when enqueuing
system.mem_ctrls.totQLat                    765763250                       # Total ticks spent queuing
system.mem_ctrls.totBusLat                  194160000                       # Total ticks spent in databus transfers
system.mem_ctrls.totMemAccLat              1493863250                       # Total ticks spent from burst creation until serviced by the DRAM
system.mem_ctrls.avgQLat                     19719.90                       # Average queueing delay per DRAM burst
system.mem_ctrls.avgBusLat                    5000.00                       # Average bus latency per DRAM burst
system.mem_ctrls.avgMemAccLat                38469.90                       # Average memory access latency per DRAM burst
system.mem_ctrls.numRdRetry                         0                       # Number of times read queue was full causing retry
system.mem_ctrls.numWrRetry                         0                       # Number of times write queue was full causing retry
system.mem_ctrls.readRowHits                    19610                       # Number of row buffer hits during reads
system.mem_ctrls.writeRowHits                    4707                       # Number of row buffer hits during writes
system.mem_ctrls.readRowHitRate                 50.50                       # Row buffer hit rate for reads
system.mem_ctrls.writeRowHitRate                85.21                       # Row buffer hit rate for writes
system.mem_ctrls.readPktSize::0                     0                       # Read request sizes (log2)
system.mem_ctrls.readPktSize::1                     0                       # Read request sizes (log2)
system.mem_ctrls.readPktSize::2                     0                       # Read request sizes (log2)
system.mem_ctrls.readPktSize::3                     0                       # Read request sizes (log2)
system.mem_ctrls.readPktSize::4                     0                       # Read request sizes (log2)
system.mem_ctrls.readPktSize::5                     0                       # Read request sizes (log2)
system.mem_ctrls.readPktSize::6                 38833                       # Read request sizes (log2)
system.mem_ctrls.writePktSize::0                    0                       # Write request sizes (log2)
system.mem_ctrls.writePktSize::1                    0                       # Write request sizes (log2)
system.mem_ctrls.writePktSize::2                    0                       # Write request sizes (log2)
system.mem_ctrls.writePktSize::3                    0                       # Write request sizes (log2)
system.mem_ctrls.writePktSize::4                    0                       # Write request sizes (log2)
system.mem_ctrls.writePktSize::5                    0                       # Write request sizes (log2)
system.mem_ctrls.writePktSize::6                 5524                       # Write request sizes (log2)
system.mem_ctrls.rdQLenPdf::0                   38707                       # What read queue length does an incoming req see
system.mem_ctrls.rdQLenPdf::1                     119                       # What read queue length does an incoming req see
system.mem_ctrls.rdQLenPdf::2                       6                       # What read queue length does an incoming req see
system.mem_ctrls.rdQLenPdf::3                       0                       # What read queue length does an incoming req see
system.mem_ctrls.rdQLenPdf::4                       0                       # What read queue length does an incoming req see
system.mem_ctrls.rdQLenPdf::5                       0                       # What read queue length does an incoming req see
system.mem_ctrls.rdQLenPdf::6                       0                       # What read queue length does an incoming req see
system.mem_ctrls.rdQLenPdf::7                       0                       # What read queue length does an incoming req see
system.mem_ctrls.rdQLenPdf::8                       0                       # What read queue length does an incoming req see
system.mem_ctrls.rdQLenPdf::9                       0                       # What read queue length does an incoming req see
system.mem_ctrls.rdQLenPdf::10                      0                       # What read queue length does an incoming req see
system.mem_ctrls.rdQLenPdf::11                      0                       # What read queue length does an incoming req see
system.mem_ctrls.rdQLenPdf::12                      0                       # What read queue length does an incoming req see
system.mem_ctrls.rdQLenPdf::13                      0                       # What read queue length does an incoming req see
system.mem_ctrls.rdQLenPdf::14                      0                       # What read queue length does an incoming req see
system.mem_ctrls.rdQLenPdf::15                      0                       # What read queue length does an incoming req see
system.mem_ctrls.rdQLenPdf::16                      0                       # What read queue length does an incoming req see
system.mem_ctrls.rdQLenPdf::17                      0                       # What read queue length does an incoming req see
system.mem_ctrls.rdQLenPdf::18                      0                       # What read queue length does an incoming req see
system.mem_ctrls.rdQLenPdf::19                      0                       # What read queue length does an incoming req see
system.mem_ctrls.rdQLenPdf::20                      0                       # What read queue length does an incoming req see
system.mem_ctrls.rdQLenPdf::21                      0                       # What read queue length does an incoming req see
system.mem_ctrls.rdQLenPdf::22                      0                       # What read queue length does an incoming req see
system.mem_ctrls.rdQLenPdf::23                      0                       # What read queue length does an incoming req see
system.mem_ctrls.rdQLenPdf::24                      0                       # What read queue length does an incoming req see
system.mem_ctrls.rdQLenPdf::25                      0                       # What read queue length does an incoming req see
system.mem_ctrls.rdQLenPdf::26                      0                       # What read queue length does an incoming req see
system.mem_ctrls.rdQLenPdf::27                      0                       # What read queue length does an incoming req see
system.mem_ctrls.rdQLenPdf::28                      0                       # What read queue length does an incoming req see
system.mem_ctrls.rdQLenPdf::29                      0                       # What read queue length does an incoming req see
system.mem_ctrls.rdQLenPdf::30                      0                       # What read queue length does an incoming req see
system.mem_ctrls.rdQLenPdf::31                      0                       # What read queue length does an incoming req see
system.mem_ctrls.wrQLenPdf::0                       1                       # What write queue length does an incoming req see
system.mem_ctrls.wrQLenPdf::1                       1                       # What write queue length does an incoming req see
system.mem_ctrls.wrQLenPdf::2                       1                       # What write queue length does an incoming req see
system.mem_ctrls.wrQLenPdf::3                       1                       # What write queue length does an incoming req see
system.mem_ctrls.wrQLenPdf::4                       1                       # What write queue length does an incoming req see
system.mem_ctrls.wrQLenPdf::5                       1                       # What write queue length does an incoming req see
system.mem_ctrls.wrQLenPdf::6                       1                       # What write queue length does an incoming req see
system.mem_ctrls.wrQLenPdf::7                       1                       # What write queue length does an incoming req see
system.mem_ctrls.wrQLenPdf::8                       1                       # What write queue length does an incoming req see
system.mem_ctrls.wrQLenPdf::9                       1                       # What write queue length does an incoming req see
system.mem_ctrls.wrQLenPdf::10                      1                       # What write queue length does an incoming req see
system.mem_ctrls.wrQLenPdf::11                      1                       # What write queue length does an incoming req see
system.mem_ctrls.wrQLenPdf::12                      1                       # What write queue length does an incoming req see
system.mem_ctrls.wrQLenPdf::13                      1                       # What write queue length does an incoming req see
system.mem_ctrls.wrQLenPdf::14                      1                       # What write queue length does an incoming req see
system.mem_ctrls.wrQLenPdf::15                    305                       # What write queue length does an incoming req see
system.mem_ctrls.wrQLenPdf::16                    305                       # What write queue length does an incoming req see
system.mem_ctrls.wrQLenPdf::17                    306                       # What write queue length does an incoming req see
system.mem_ctrls.wrQLenPdf::18                    306                       # What write queue length does an incoming req see
system.mem_ctrls.wrQLenPdf::19                    306                       # What write queue length does an incoming req see
system.mem_ctrls.wrQLenPdf::20                    306                       # What write queue length does an incoming req see
system.mem_ctrls.wrQLenPdf::21                    306                       # What write queue length does an incoming req see
system.mem_ctrls.wrQLenPdf::22                    307                       # What write queue length does an incoming req see
system.mem_ctrls.wrQLenPdf::23                    308                       # What write queue length does an incoming req see
system.mem_ctrls.wrQLenPdf::24                    308                       # What write queue length does an incoming req see
system.mem_ctrls.wrQLenPdf::25                    306                       # What write queue length does an incoming req see
system.mem_ctrls.wrQLenPdf::26                    306                       # What write queue length does an incoming req see
system.mem_ctrls.wrQLenPdf::27                    307                       # What write queue length does an incoming req see
system.mem_ctrls.wrQLenPdf::28                    307                       # What write queue length does an incoming req see
system.mem_ctrls.wrQLenPdf::29                    305                       # What write queue length does an incoming req see
system.mem_ctrls.wrQLenPdf::30                    305                       # What write queue length does an incoming req see
system.mem_ctrls.wrQLenPdf::31                    305                       # What write queue length does an incoming req see
system.mem_ctrls.wrQLenPdf::32                    305                       # What write queue length does an incoming req see
system.mem_ctrls.wrQLenPdf::33                      0                       # What write queue length does an incoming req see
system.mem_ctrls.wrQLenPdf::34                      0                       # What write queue length does an incoming req see
system.mem_ctrls.wrQLenPdf::35                      0                       # What write queue length does an incoming req see
system.mem_ctrls.wrQLenPdf::36                      0                       # What write queue length does an incoming req see
system.mem_ctrls.wrQLenPdf::37                      0                       # What write queue length does an incoming req see
system.mem_ctrls.wrQLenPdf::38                      0                       # What write queue length does an incoming req see
system.mem_ctrls.wrQLenPdf::39                      0                       # What write queue length does an incoming req see
system.mem_ctrls.wrQLenPdf::40                      0                       # What write queue length does an incoming req see
system.mem_ctrls.wrQLenPdf::41                      0                       # What write queue length does an incoming req see
system.mem_ctrls.wrQLenPdf::42                      0                       # What write queue length does an incoming req see
system.mem_ctrls.wrQLenPdf::43                      0                       # What write queue length does an incoming req see
system.mem_ctrls.wrQLenPdf::44                      0                       # What write queue length does an incoming req see
system.mem_ctrls.wrQLenPdf::45                      0                       # What write queue length does an incoming req see
system.mem_ctrls.wrQLenPdf::46                      0                       # What write queue length does an incoming req see
system.mem_ctrls.wrQLenPdf::47                      0                       # What write queue length does an incoming req see
system.mem_ctrls.wrQLenPdf::48                      0                       # What write queue length does an incoming req see
system.mem_ctrls.wrQLenPdf::49                      0                       # What write queue length does an incoming req see
system.mem_ctrls.wrQLenPdf::50                      0                       # What write queue length does an incoming req see
system.mem_ctrls.wrQLenPdf::51                      0                       # What write queue length does an incoming req see
system.mem_ctrls.wrQLenPdf::52                      0                       # What write queue length does an incoming req see
system.mem_ctrls.wrQLenPdf::53                      0                       # What write queue length does an incoming req see
system.mem_ctrls.wrQLenPdf::54                      0                       # What write queue length does an incoming req see
system.mem_ctrls.wrQLenPdf::55                      0                       # What write queue length does an incoming req see
system.mem_ctrls.wrQLenPdf::56                      0                       # What write queue length does an incoming req see
system.mem_ctrls.wrQLenPdf::57                      0                       # What write queue length does an incoming req see
system.mem_ctrls.wrQLenPdf::58                      0                       # What write queue length does an incoming req see
system.mem_ctrls.wrQLenPdf::59                      0                       # What write queue length does an incoming req see
system.mem_ctrls.wrQLenPdf::60                      0                       # What write queue length does an incoming req see
system.mem_ctrls.wrQLenPdf::61                      0                       # What write queue length does an incoming req see
system.mem_ctrls.wrQLenPdf::62                      0                       # What write queue length does an incoming req see
system.mem_ctrls.wrQLenPdf::63                      0                       # What write queue length does an incoming req see
system.mem_ctrls.bytesPerActivate::samples        20009                       # Bytes accessed per row activation
system.mem_ctrls.bytesPerActivate::mean    141.779399                       # Bytes accessed per row activation
system.mem_ctrls.bytesPerActivate::gmean   115.569179                       # Bytes accessed per row activation
system.mem_ctrls.bytesPerActivate::stdev   125.273214                       # Bytes accessed per row activation
system.mem_ctrls.bytesPerActivate::0-127         7828     39.12%     39.12% # Bytes accessed per row activation
system.mem_ctrls.bytesPerActivate::128-255         9707     48.51%     87.64% # Bytes accessed per row activation
system.mem_ctrls.bytesPerActivate::256-383         1725      8.62%     96.26% # Bytes accessed per row activation
system.mem_ctrls.bytesPerActivate::384-511          405      2.02%     98.28% # Bytes accessed per row activation
system.mem_ctrls.bytesPerActivate::512-639           47      0.23%     98.52% # Bytes accessed per row activation
system.mem_ctrls.bytesPerActivate::640-767           42      0.21%     98.73% # Bytes accessed per row activation
system.mem_ctrls.bytesPerActivate::768-895           38      0.19%     98.92% # Bytes accessed per row activation
system.mem_ctrls.bytesPerActivate::896-1023           36      0.18%     99.10% # Bytes accessed per row activation
system.mem_ctrls.bytesPerActivate::1024-1151          181      0.90%    100.00% # Bytes accessed per row activation
system.mem_ctrls.bytesPerActivate::total        20009                       # Bytes accessed per row activation
system.mem_ctrls.rdPerTurnAround::samples          305                       # Reads before turning the bus around for writes
system.mem_ctrls.rdPerTurnAround::mean     127.272131                       # Reads before turning the bus around for writes
system.mem_ctrls.rdPerTurnAround::gmean     19.672034                       # Reads before turning the bus around for writes
system.mem_ctrls.rdPerTurnAround::stdev   1667.000756                       # Reads before turning the bus around for writes
system.mem_ctrls.rdPerTurnAround::0-1023          302     99.02%     99.02% # Reads before turning the bus around for writes
system.mem_ctrls.rdPerTurnAround::1024-2047            2      0.66%     99.67% # Reads before turning the bus around for writes
system.mem_ctrls.rdPerTurnAround::28672-29695            1      0.33%    100.00% # Reads before turning the bus around for writes
system.mem_ctrls.rdPerTurnAround::total           305                       # Reads before turning the bus around for writes
system.mem_ctrls.wrPerTurnAround::samples          305                       # Writes before turning the bus around for reads
[...]
system.cpu.icache.ReadReq_mshr_misses::.cpu.inst          998                       # number of ReadReq MSHR misses
system.cpu.icache.ReadReq_mshr_misses::total          998                       # number of ReadReq MSHR misses
system.cpu.icache.ReadReq_mshr_miss_latency::.cpu.inst     62085000                       # number of ReadReq MSHR miss cycles
system.cpu.icache.ReadReq_mshr_miss_latency::total     62085000                       # number of ReadReq MSHR miss cycles
system.cpu.icache.ReadReq_mshr_miss_rate::.cpu.inst     0.000037                       # mshr miss rate for ReadReq accesses
system.cpu.icache.ReadReq_mshr_miss_rate::total     0.000037                       # mshr miss rate for ReadReq accesses
system.cpu.icache.ReadReq_avg_mshr_miss_latency::.cpu.inst 62209.418838                       # average ReadReq mshr miss latency
system.cpu.icache.ReadReq_avg_mshr_miss_latency::total 62209.418838                       # average ReadReq mshr miss latency
system.cpu.icache.tags.pwrStateResidencyTicks::UNDEFINED 109758667000                       # Cumulative time (in ticks) in various power states
system.cpu.icache.tags.tagsinuse           387.618510                       # Cycle average of tags in use
system.cpu.icache.tags.total_refs            27000244                       # Total number of references to valid blocks.
system.cpu.icache.tags.sampled_refs               998                       # Sample count of references to valid blocks.
system.cpu.icache.tags.avg_refs          27054.352705                       # Average number of references to valid blocks.
system.cpu.icache.tags.warmup_cycle            108000                       # Cycle when the warmup percentage was hit.
system.cpu.icache.tags.occ_blocks::.cpu.inst   387.618510                       # Average occupied blocks per requestor
system.cpu.icache.tags.occ_percent::.cpu.inst     0.757067                       # Average percentage of cache occupancy
system.cpu.icache.tags.occ_percent::total     0.757067                       # Average percentage of cache occupancy
system.cpu.icache.tags.occ_task_id_blocks::1024          388                       # Occupied blocks per task id
system.cpu.icache.tags.age_task_id_blocks_1024::1            4                       # Occupied blocks per task id
system.cpu.icache.tags.age_task_id_blocks_1024::4          384                       # Occupied blocks per task id
system.cpu.icache.tags.occ_task_id_percent::1024     0.757812                       # Percentage of cache occupancy per task id
system.cpu.icache.tags.tag_accesses          54001486                       # Number of tag accesses
system.cpu.icache.tags.data_accesses         54001486                       # Number of data accesses
system.cpu.dtb.walker.pwrStateResidencyTicks::UNDEFINED 109758667000                       # Cumulative time (in ticks) in various power states
system.cpu.dtb.stage2_mmu.stage2_tlb.walker.pwrStateResidencyTicks::UNDEFINED 109758667000                       # Cumulative time (in ticks) in various power states
system.cpu.dcache.pwrStateResidencyTicks::UNDEFINED 109758667000                       # Cumulative time (in ticks) in various power states
system.cpu.dcache.demand_hits::.cpu.data     35059911                       # number of demand (read+write) hits
system.cpu.dcache.demand_hits::total         35059911                       # number of demand (read+write) hits
system.cpu.dcache.overall_hits::.cpu.data     35062931                       # number of overall hits
system.cpu.dcache.overall_hits::total        35062931                       # number of overall hits
system.cpu.dcache.demand_misses::.cpu.data       109018                       # number of demand (read+write) misses
system.cpu.dcache.demand_misses::total         109018                       # number of demand (read+write) misses
system.cpu.dcache.overall_misses::.cpu.data       109127                       # number of overall misses
system.cpu.dcache.overall_misses::total        109127                       # number of overall misses
system.cpu.dcache.demand_miss_latency::.cpu.data   7022283000                       # number of demand (read+write) miss cycles
system.cpu.dcache.demand_miss_latency::total   7022283000                       # number of demand (read+write) miss cycles
system.cpu.dcache.overall_miss_latency::.cpu.data   7022283000                       # number of overall miss cycles
system.cpu.dcache.overall_miss_latency::total   7022283000                       # number of overall miss cycles
system.cpu.dcache.demand_accesses::.cpu.data     35168929                       # number of demand (read+write) accesses
system.cpu.dcache.demand_accesses::total     35168929                       # number of demand (read+write) accesses
system.cpu.dcache.overall_accesses::.cpu.data     35172058                       # number of overall (read+write) accesses
system.cpu.dcache.overall_accesses::total     35172058                       # number of overall (read+write) accesses
system.cpu.dcache.demand_miss_rate::.cpu.data     0.003100                       # miss rate for demand accesses
system.cpu.dcache.demand_miss_rate::total     0.003100                       # miss rate for demand accesses
system.cpu.dcache.overall_miss_rate::.cpu.data     0.003103                       # miss rate for overall accesses
system.cpu.dcache.overall_miss_rate::total     0.003103                       # miss rate for overall accesses
system.cpu.dcache.demand_avg_miss_latency::.cpu.data 64413.977508                       # average overall miss latency
system.cpu.dcache.demand_avg_miss_latency::total 64413.977508                       # average overall miss latency
system.cpu.dcache.overall_avg_miss_latency::.cpu.data 64349.638495                       # average overall miss latency
system.cpu.dcache.overall_avg_miss_latency::total 64349.638495                       # average overall miss latency
system.cpu.dcache.blocked_cycles::no_mshrs            0                       # number of cycles access was blocked
system.cpu.dcache.blocked_cycles::no_targets            0                       # number of cycles access was blocked
system.cpu.dcache.blocked::no_mshrs                 0                       # number of cycles access was blocked
system.cpu.dcache.blocked::no_targets               0                       # number of cycles access was blocked
system.cpu.dcache.avg_blocked_cycles::no_mshrs          nan                       # average number of cycles each access was blocked
system.cpu.dcache.avg_blocked_cycles::no_targets          nan                       # average number of cycles each access was blocked
system.cpu.dcache.writebacks::.writebacks        62568                       # number of writebacks
system.cpu.dcache.writebacks::total             62568                       # number of writebacks
system.cpu.dcache.demand_mshr_hits::.cpu.data        29165                       # number of demand (read+write) MSHR hits
system.cpu.dcache.demand_mshr_hits::total        29165                       # number of demand (read+write) MSHR hits
system.cpu.dcache.overall_mshr_hits::.cpu.data        29165                       # number of overall MSHR hits
system.cpu.dcache.overall_mshr_hits::total        29165                       # number of overall MSHR hits
system.cpu.dcache.demand_mshr_misses::.cpu.data        79853                       # number of demand (read+write) MSHR misses
system.cpu.dcache.demand_mshr_misses::total        79853                       # number of demand (read+write) MSHR misses
system.cpu.dcache.overall_mshr_misses::.cpu.data        79958                       # number of overall MSHR misses
system.cpu.dcache.overall_mshr_misses::total        79958                       # number of overall MSHR misses
system.cpu.dcache.demand_mshr_miss_latency::.cpu.data   5339016000                       # number of demand (read+write) MSHR miss cycles
system.cpu.dcache.demand_mshr_miss_latency::total   5339016000                       # number of demand (read+write) MSHR miss cycles
system.cpu.dcache.overall_mshr_miss_latency::.cpu.data   5342899000                       # number of overall MSHR miss cycles
system.cpu.dcache.overall_mshr_miss_latency::total   5342899000                       # number of overall MSHR miss cycles
system.cpu.dcache.demand_mshr_miss_rate::.cpu.data     0.002271                       # mshr miss rate for demand accesses
system.cpu.dcache.demand_mshr_miss_rate::total     0.002271                       # mshr miss rate for demand accesses
system.cpu.dcache.overall_mshr_miss_rate::.cpu.data     0.002273                       # mshr miss rate for overall accesses
system.cpu.dcache.overall_mshr_miss_rate::total     0.002273                       # mshr miss rate for overall accesses
system.cpu.dcache.demand_avg_mshr_miss_latency::.cpu.data 66860.556272                       # average overall mshr miss latency
system.cpu.dcache.demand_avg_mshr_miss_latency::total 66860.556272                       # average overall mshr miss latency
system.cpu.dcache.overall_avg_mshr_miss_latency::.cpu.data 66821.318692                       # average overall mshr miss latency
system.cpu.dcache.overall_avg_mshr_miss_latency::total 66821.318692                       # average overall mshr miss latency
system.cpu.dcache.replacements                  79702                       # number of replacements
system.cpu.dcache.ReadReq_hits::.cpu.data     20853778                       # number of ReadReq hits
system.cpu.dcache.ReadReq_hits::total        20853778                       # number of ReadReq hits
system.cpu.dcache.ReadReq_misses::.cpu.data        48165                       # number of ReadReq misses
system.cpu.dcache.ReadReq_misses::total         48165                       # number of ReadReq misses
system.cpu.dcache.ReadReq_miss_latency::.cpu.data   1315780000                       # number of ReadReq miss cycles
system.cpu.dcache.ReadReq_miss_latency::total   1315780000                       # number of ReadReq miss cycles
system.cpu.dcache.ReadReq_accesses::.cpu.data     20901943                       # number of ReadReq accesses(hits+misses)
system.cpu.dcache.ReadReq_accesses::total     20901943                       # number of ReadReq accesses(hits+misses)
system.cpu.dcache.ReadReq_miss_rate::.cpu.data     0.002304                       # miss rate for ReadReq accesses
system.cpu.dcache.ReadReq_miss_rate::total     0.002304                       # miss rate for ReadReq accesses
system.cpu.dcache.ReadReq_avg_miss_latency::.cpu.data 27318.177100                       # average ReadReq miss latency
system.cpu.dcache.ReadReq_avg_miss_latency::total 27318.177100                       # average ReadReq miss latency
system.cpu.dcache.ReadReq_mshr_hits::.cpu.data         9552                       # number of ReadReq MSHR hits
system.cpu.dcache.ReadReq_mshr_hits::total         9552                       # number of ReadReq MSHR hits
system.cpu.dcache.ReadReq_mshr_misses::.cpu.data        38613                       # number of ReadReq MSHR misses
system.cpu.dcache.ReadReq_mshr_misses::total        38613                       # number of ReadReq MSHR misses
system.cpu.dcache.ReadReq_mshr_miss_latency::.cpu.data    968114000                       # number of ReadReq MSHR miss cycles
system.cpu.dcache.ReadReq_mshr_miss_latency::total    968114000                       # number of ReadReq MSHR miss cycles
system.cpu.dcache.ReadReq_mshr_miss_rate::.cpu.data     0.001847                       # mshr miss rate for ReadReq accesses
system.cpu.dcache.ReadReq_mshr_miss_rate::total     0.001847                       # mshr miss rate for ReadReq accesses
system.cpu.dcache.ReadReq_avg_mshr_miss_latency::.cpu.data 25072.229560                       # average ReadReq mshr miss latency
system.cpu.dcache.ReadReq_avg_mshr_miss_latency::total 25072.229560                       # average ReadReq mshr miss latency
system.cpu.dcache.WriteReq_hits::.cpu.data     14206133                       # number of WriteReq hits
system.cpu.dcache.WriteReq_hits::total       14206133                       # number of WriteReq hits
system.cpu.dcache.WriteReq_misses::.cpu.data        60853                       # number of WriteReq misses
system.cpu.dcache.WriteReq_misses::total        60853                       # number of WriteReq misses
system.cpu.dcache.WriteReq_miss_latency::.cpu.data   5706503000                       # number of WriteReq miss cycles
system.cpu.dcache.WriteReq_miss_latency::total   5706503000                       # number of WriteReq miss cycles
system.cpu.dcache.WriteReq_accesses::.cpu.data     14266986                       # number of WriteReq accesses(hits+misses)
system.cpu.dcache.WriteReq_accesses::total     14266986                       # number of WriteReq accesses(hits+misses)
system.cpu.dcache.WriteReq_miss_rate::.cpu.data     0.004265                       # miss rate for WriteReq accesses
system.cpu.dcache.WriteReq_miss_rate::total     0.004265                       # miss rate for WriteReq accesses
system.cpu.dcache.WriteReq_avg_miss_latency::.cpu.data 93775.212397                       # average WriteReq miss latency
system.cpu.dcache.WriteReq_avg_miss_latency::total 93775.212397                       # average WriteReq miss latency
system.cpu.dcache.WriteReq_mshr_hits::.cpu.data        19613                       # number of WriteReq MSHR hits
system.cpu.dcache.WriteReq_mshr_hits::total        19613                       # number of WriteReq MSHR hits
system.cpu.dcache.WriteReq_mshr_misses::.cpu.data        41240                       # number of WriteReq MSHR misses
system.cpu.dcache.WriteReq_mshr_misses::total        41240                       # number of WriteReq MSHR misses
system.cpu.dcache.WriteReq_mshr_miss_latency::.cpu.data   4370902000                       # number of WriteReq MSHR miss cycles
system.cpu.dcache.WriteReq_mshr_miss_latency::total   4370902000                       # number of WriteReq MSHR miss cycles
system.cpu.dcache.WriteReq_mshr_miss_rate::.cpu.data     0.002891                       # mshr miss rate for WriteReq accesses
system.cpu.dcache.WriteReq_mshr_miss_rate::total     0.002891                       # mshr miss rate for WriteReq accesses
system.cpu.dcache.WriteReq_avg_mshr_miss_latency::.cpu.data 105986.954413                       # average WriteReq mshr miss latency
system.cpu.dcache.WriteReq_avg_mshr_miss_latency::total 105986.954413                       # average WriteReq mshr miss latency
system.cpu.dcache.SoftPFReq_hits::.cpu.data         3020                       # number of SoftPFReq hits
system.cpu.dcache.SoftPFReq_hits::total          3020                       # number of SoftPFReq hits
system.cpu.dcache.SoftPFReq_misses::.cpu.data          109                       # number of SoftPFReq misses
system.cpu.dcache.SoftPFReq_misses::total          109                       # number of SoftPFReq misses
system.cpu.dcache.SoftPFReq_accesses::.cpu.data         3129                       # number of SoftPFReq accesses(hits+misses)
system.cpu.dcache.SoftPFReq_accesses::total         3129                       # number of SoftPFReq accesses(hits+misses)
system.cpu.dcache.SoftPFReq_miss_rate::.cpu.data     0.034835                       # miss rate for SoftPFReq accesses
system.cpu.dcache.SoftPFReq_miss_rate::total     0.034835                       # miss rate for SoftPFReq accesses
system.cpu.dcache.SoftPFReq_mshr_misses::.cpu.data          105                       # number of SoftPFReq MSHR misses
system.cpu.dcache.SoftPFReq_mshr_misses::total          105                       # number of SoftPFReq MSHR misses
system.cpu.dcache.SoftPFReq_mshr_miss_latency::.cpu.data      3883000                       # number of SoftPFReq MSHR miss cycles
system.cpu.dcache.SoftPFReq_mshr_miss_latency::total      3883000                       # number of SoftPFReq MSHR miss cycles
system.cpu.dcache.SoftPFReq_mshr_miss_rate::.cpu.data     0.033557                       # mshr miss rate for SoftPFReq accesses
system.cpu.dcache.SoftPFReq_mshr_miss_rate::total     0.033557                       # mshr miss rate for SoftPFReq accesses
system.cpu.dcache.SoftPFReq_avg_mshr_miss_latency::.cpu.data 36980.952381                       # average SoftPFReq mshr miss latency
system.cpu.dcache.SoftPFReq_avg_mshr_miss_latency::total 36980.952381                       # average SoftPFReq mshr miss latency
system.cpu.dcache.LoadLockedReq_hits::.cpu.data        85610                       # number of LoadLockedReq hits
system.cpu.dcache.LoadLockedReq_hits::total        85610                       # number of LoadLockedReq hits
system.cpu.dcache.LoadLockedReq_accesses::.cpu.data        85610                       # number of LoadLockedReq accesses(hits+misses)
system.cpu.dcache.LoadLockedReq_accesses::total        85610                       # number of LoadLockedReq accesses(hits+misses)
system.cpu.dcache.StoreCondReq_hits::.cpu.data        85610                       # number of StoreCondReq hits
system.cpu.dcache.StoreCondReq_hits::total        85610                       # number of StoreCondReq hits
system.cpu.dcache.StoreCondReq_accesses::.cpu.data        85610                       # number of StoreCondReq accesses(hits+misses)
system.cpu.dcache.StoreCondReq_accesses::total        85610                       # number of StoreCondReq accesses(hits+misses)
system.cpu.dcache.tags.pwrStateResidencyTicks::UNDEFINED 109758667000                       # Cumulative time (in ticks) in various power states
system.cpu.dcache.tags.tagsinuse           255.815605                       # Cycle average of tags in use
system.cpu.dcache.tags.total_refs            35314109                       # Total number of references to valid blocks.
system.cpu.dcache.tags.sampled_refs             79958                       # Sample count of references to valid blocks.
system.cpu.dcache.tags.avg_refs            441.658233                       # Average number of references to valid blocks.
system.cpu.dcache.tags.warmup_cycle            223000                       # Cycle when the warmup percentage was hit.
system.cpu.dcache.tags.occ_blocks::.cpu.data   255.815605                       # Average occupied blocks per requestor
system.cpu.dcache.tags.occ_percent::.cpu.data     0.999280                       # Average percentage of cache occupancy
system.cpu.dcache.tags.occ_percent::total     0.999280                       # Average percentage of cache occupancy
system.cpu.dcache.tags.occ_task_id_blocks::1024          256                       # Occupied blocks per task id
system.cpu.dcache.tags.age_task_id_blocks_1024::0            6                       # Occupied blocks per task id
system.cpu.dcache.tags.age_task_id_blocks_1024::1           42                       # Occupied blocks per task id
system.cpu.dcache.tags.age_task_id_blocks_1024::2          184                       # Occupied blocks per task id
system.cpu.dcache.tags.age_task_id_blocks_1024::3           16                       # Occupied blocks per task id
system.cpu.dcache.tags.age_task_id_blocks_1024::4            8                       # Occupied blocks per task id
system.cpu.dcache.tags.occ_task_id_percent::1024            1                       # Percentage of cache occupancy per task id
system.cpu.dcache.tags.tag_accesses          70766514                       # Number of tag accesses
system.cpu.dcache.tags.data_accesses         70766514                       # Number of data accesses
system.cpu.itb.walker.pwrStateResidencyTicks::UNDEFINED 109758667000                       # Cumulative time (in ticks) in various power states
system.cpu.itb.stage2_mmu.stage2_tlb.walker.pwrStateResidencyTicks::UNDEFINED 109758667000                       # Cumulative time (in ticks) in various power states

---------- End Simulation Statistics   ----------
