
---------- Begin Simulation Statistics ----------
final_tick                               155438934000                       # Number of ticks from beginning of simulation (restored from checkpoints and never reset)
host_inst_rate                                 332903                       # Simulator instruction rate (inst/s)
host_mem_usage                                 727980                       # Number of bytes of host memory used
host_op_rate                                   333567                       # Simulator op (including micro ops) rate (op/s)
host_seconds                                   300.39                       # Real time elapsed on the host
host_tick_rate                              517460936                       # Simulator tick rate (ticks/s)
sim_freq                                 1000000000000                       # Frequency of simulated ticks
sim_insts                                   100000001                       # Number of instructions simulated
sim_ops                                     100199569                       # Number of ops (including micro ops) simulated
sim_seconds                                  0.155439                       # Number of seconds simulated
sim_ticks                                155438934000                       # Number of ticks simulated
system.cpu.branchPred.BTBCorrect                    0                       # Number of correct BTB predictions (this stat may not work properly.
system.cpu.branchPred.BTBHitPct             99.569173                       # BTB Hit Percentage
system.cpu.branchPred.BTBHits                 2104043                       # Number of BTB hits
system.cpu.branchPred.BTBLookups              2113147                       # Number of BTB lookups
system.cpu.branchPred.RASInCorrect                  6                       # Number of incorrect RAS predictions.
system.cpu.branchPred.condIncorrect             83520                       # Number of conditional branches incorrect
system.cpu.branchPred.condPredicted           3635483                       # Number of conditional branches predicted
system.cpu.branchPred.indirectHits                297                       # Number of indirect target hits.
system.cpu.branchPred.indirectLookups             792                       # Number of indirect predictor lookups.
system.cpu.branchPred.indirectMisses              495                       # Number of indirect misses.
system.cpu.branchPred.lookups                 4389734                       # Number of BP lookups
system.cpu.branchPred.usedRAS                   66017                       # Number of times the RAS was used to get a target.
system.cpu.branchPredindirectMispredicted          168                       # Number of mispredicted indirect branches.
system.cpu.committedInsts                   100000001                       # Number of instructions committed
system.cpu.committedOps                     100199569                       # Number of ops (including micro ops) committed
system.cpu.cpi                               1.554389                       # CPI: cycles per instruction
system.cpu.discardedOps                        196810                       # Number of ops (including micro ops) which were discarded before commit
system.cpu.dtb.accesses                             0                       # DTB accesses
system.cpu.dtb.align_faults                         0                       # Number of TLB faults due to alignment restrictions
system.cpu.dtb.domain_faults                        0                       # Number of TLB faults due to domain restrictions
system.cpu.dtb.flush_entries                        0                       # Number of entries that have been flushed from TLB
system.cpu.dtb.flush_tlb                            0                       # Number of times complete TLB was flushed
system.cpu.dtb.flush_tlb_asid                       0                       # Number of times TLB was flushed by ASID
system.cpu.dtb.flush_tlb_mva                        0                       # Number of times TLB was flushed by MVA
system.cpu.dtb.flush_tlb_mva_asid                   0                       # Number of times TLB was flushed by MVA & ASID
system.cpu.dtb.hits                                 0                       # DTB hits
system.cpu.dtb.inst_accesses                        0                       # ITB inst accesses
system.cpu.dtb.inst_hits                            0                       # ITB inst hits
system.cpu.dtb.inst_misses                          0                       # ITB inst misses
system.cpu.dtb.misses                               0                       # DTB misses
system.cpu.dtb.perms_faults                         0                       # Number of TLB faults due to permissions restrictions
system.cpu.dtb.prefetch_faults                      0                       # Number of TLB faults due to prefetch
system.cpu.dtb.read_accesses                        0                       # DTB read accesses
system.cpu.dtb.read_hits                            0                       # DTB read hits
system.cpu.dtb.read_misses                          0                       # DTB read misses
system.cpu.dtb.stage2_mmu.stage2_tlb.accesses            0                       # DTB accesses
system.cpu.dtb.stage2_mmu.stage2_tlb.align_faults            0                       # Number of TLB faults due to alignment restrictions
system.cpu.dtb.stage2_mmu.stage2_tlb.domain_faults            0                       # Number of TLB faults due to domain restrictions
system.cpu.dtb.stage2_mmu.stage2_tlb.flush_entries            0                       # Number of entries that have been flushed from TLB
system.cpu.dtb.stage2_mmu.stage2_tlb.flush_tlb            0                       # Number of times complete TLB was flushed
system.cpu.dtb.stage2_mmu.stage2_tlb.flush_tlb_asid            0                       # Number of times TLB was flushed by ASID
system.cpu.dtb.stage2_mmu.stage2_tlb.flush_tlb_mva            0                       # Number of times TLB was flushed by MVA
system.cpu.dtb.stage2_mmu.stage2_tlb.flush_tlb_mva_asid            0                       # Number of times TLB was flushed by MVA & ASID
system.cpu.dtb.stage2_mmu.stage2_tlb.hits            0                       # DTB hits
system.cpu.dtb.stage2_mmu.stage2_tlb.inst_accesses            0                       # ITB inst accesses
system.cpu.dtb.stage2_mmu.stage2_tlb.inst_hits            0                       # ITB inst hits
system.cpu.dtb.stage2_mmu.stage2_tlb.inst_misses            0                       # ITB inst misses
system.cpu.dtb.stage2_mmu.stage2_tlb.misses            0                       # DTB misses
system.cpu.dtb.stage2_mmu.stage2_tlb.perms_faults            0                       # Number of TLB faults due to permissions restrictions
system.cpu.dtb.stage2_mmu.stage2_tlb.prefetch_faults            0                       # Number of TLB faults due to prefetch
system.cpu.dtb.stage2_mmu.stage2_tlb.read_accesses            0                       # DTB read accesses
system.cpu.dtb.stage2_mmu.stage2_tlb.read_hits            0                       # DTB read hits
system.cpu.dtb.stage2_mmu.stage2_tlb.read_misses            0                       # DTB read misses
system.cpu.dtb.stage2_mmu.stage2_tlb.walker.walkRequestOrigin_Requested::Data            0                       # Table walker requests started/completed, data/inst
system.cpu.dtb.stage2_mmu.stage2_tlb.walker.walkRequestOrigin_Requested::Inst            0                       # Table walker requests started/completed, data/inst
system.cpu.dtb.stage2_mmu.stage2_tlb.walker.walkRequestOrigin_Requested::total            0                       # Table walker requests started/completed, data/inst
system.cpu.dtb.stage2_mmu.stage2_tlb.walker.walkRequestOrigin_Completed::Data            0                       # Table walker requests started/completed, data/inst
system.cpu.dtb.stage2_mmu.stage2_tlb.walker.walkRequestOrigin_Completed::Inst            0                       # Table walker requests started/completed, data/inst
system.cpu.dtb.stage2_mmu.stage2_tlb.walker.walkRequestOrigin_Completed::total            0                       # Table walker requests started/completed, data/inst
system.cpu.dtb.stage2_mmu.stage2_tlb.walker.walkRequestOrigin::total            0                       # Table walker requests started/completed, data/inst
system.cpu.dtb.stage2_mmu.stage2_tlb.walker.walks            0                       # Table walker walks requested
system.cpu.dtb.stage2_mmu.stage2_tlb.write_accesses            0                       # DTB write accesses
system.cpu.dtb.stage2_mmu.stage2_tlb.write_hits            0                       # DTB write hits
system.cpu.dtb.stage2_mmu.stage2_tlb.write_misses            0                       # DTB write misses
system.cpu.dtb.walker.walkRequestOrigin_Requested::Data            0                       # Table walker requests started/completed, data/inst
system.cpu.dtb.walker.walkRequestOrigin_Requested::Inst            0                       # Table walker requests started/completed, data/inst
system.cpu.dtb.walker.walkRequestOrigin_Requested::total            0                       # Table walker requests started/completed, data/inst
system.cpu.dtb.walker.walkRequestOrigin_Completed::Data            0                       # Table walker requests started/completed, data/inst
system.cpu.dtb.walker.walkRequestOrigin_Completed::Inst            0                       # Table walker requests started/completed, data/inst
system.cpu.dtb.walker.walkRequestOrigin_Completed::total            0                       # Table walker requests started/completed, data/inst
system.cpu.dtb.walker.walkRequestOrigin::total            0                       # Table walker requests started/completed, data/inst
system.cpu.dtb.walker.walks                         0                       # Table walker walks requested
system.cpu.dtb.write_accesses                       0                       # DTB write accesses
system.cpu.dtb.write_hits                           0                       # DTB write hits
system.cpu.dtb.write_misses                         0                       # DTB write misses
system.cpu.fetch2.amo_instructions                  0                       # Number of memory atomic instructions successfully decoded
system.cpu.fetch2.fp_instructions                   0                       # Number of floating point instructions successfully decoded
system.cpu.fetch2.int_instructions           42627833                       # Number of integer instructions successfully decoded
system.cpu.fetch2.load_instructions          43484961                       # Number of memory load instructions successfully decoded
system.cpu.fetch2.store_instructions         11033396                       # Number of memory store instructions successfully decoded
system.cpu.fetch2.vec_instructions                  0                       # Number of SIMD instructions successfully decoded
system.cpu.idleCycles                        22971944                       # Total number of cycles that the object has spent stopped
system.cpu.ipc                               0.643339                       # IPC: instructions per cycle
system.cpu.itb.accesses                             0                       # DTB accesses
system.cpu.itb.align_faults                         0                       # Number of TLB faults due to alignment restrictions
system.cpu.itb.domain_faults                        0                       # Number of TLB faults due to domain restrictions
system.cpu.itb.flush_entries                        0                       # Number of entries that have been flushed from TLB
system.cpu.itb.flush_tlb                            0                       # Number of times complete TLB was flushed
system.cpu.itb.flush_tlb_asid                       0                       # Number of times TLB was flushed by ASID
system.cpu.itb.flush_tlb_mva                        0                       # Number of times TLB was flushed by MVA
system.cpu.itb.flush_tlb_mva_asid                   0                       # Number of times TLB was flushed by MVA & ASID
system.cpu.itb.hits                                 0                       # DTB hits
system.cpu.itb.inst_accesses                        0                       # ITB inst accesses
system.cpu.itb.inst_hits                            0                       # ITB inst hits
system.cpu.itb.inst_misses                          0                       # ITB inst misses
system.cpu.itb.misses                               0                       # DTB misses
system.cpu.itb.perms_faults                         0                       # Number of TLB faults due to permissions restrictions
system.cpu.itb.prefetch_faults                      0                       # Number of TLB faults due to prefetch
system.cpu.itb.read_accesses                        0                       # DTB read accesses
system.cpu.itb.read_hits                            0                       # DTB read hits
system.cpu.itb.read_misses                          0                       # DTB read misses
system.cpu.itb.stage2_mmu.stage2_tlb.accesses            0                       # DTB accesses
system.cpu.itb.stage2_mmu.stage2_tlb.align_faults            0                       # Number of TLB faults due to alignment restrictions
system.cpu.itb.stage2_mmu.stage2_tlb.domain_faults            0                       # Number of TLB faults due to domain restrictions
system.cpu.itb.stage2_mmu.stage2_tlb.flush_entries            0                       # Number of entries that have been flushed from TLB
system.cpu.itb.stage2_mmu.stage2_tlb.flush_tlb            0                       # Number of times complete TLB was flushed
system.cpu.itb.stage2_mmu.stage2_tlb.flush_tlb_asid            0                       # Number of times TLB was flushed by ASID
system.cpu.itb.stage2_mmu.stage2_tlb.flush_tlb_mva            0                       # Number of times TLB was flushed by MVA
system.cpu.itb.stage2_mmu.stage2_tlb.flush_tlb_mva_asid            0                       # Number of times TLB was flushed by MVA & ASID
system.cpu.itb.stage2_mmu.stage2_tlb.hits            0                       # DTB hits
system.cpu.itb.stage2_mmu.stage2_tlb.inst_accesses            0                       # ITB inst accesses
system.cpu.itb.stage2_mmu.stage2_tlb.inst_hits            0                       # ITB inst hits
system.cpu.itb.stage2_mmu.stage2_tlb.inst_misses            0                       # ITB inst misses
system.cpu.itb.stage2_mmu.stage2_tlb.misses            0                       # DTB misses
system.cpu.itb.stage2_mmu.stage2_tlb.perms_faults            0                       # Number of TLB faults due to permissions restrictions
system.cpu.itb.stage2_mmu.stage2_tlb.prefetch_faults            0                       # Number of TLB faults due to prefetch
system.cpu.itb.stage2_mmu.stage2_tlb.read_accesses            0                       # DTB read accesses
system.cpu.itb.stage2_mmu.stage2_tlb.read_hits            0                       # DTB read hits
system.cpu.itb.stage2_mmu.stage2_tlb.read_misses            0                       # DTB read misses
system.cpu.itb.stage2_mmu.stage2_tlb.walker.walkRequestOrigin_Requested::Data            0                       # Table walker requests started/completed, data/inst
system.cpu.itb.stage2_mmu.stage2_tlb.walker.walkRequestOrigin_Requested::Inst            0                       # Table walker requests started/completed, data/inst
system.cpu.itb.stage2_mmu.stage2_tlb.walker.walkRequestOrigin_Requested::total            0                       # Table walker requests started/completed, data/inst
system.cpu.itb.stage2_mmu.stage2_tlb.walker.walkRequestOrigin_Completed::Data            0                       # Table walker requests started/completed, data/inst
system.cpu.itb.stage2_mmu.stage2_tlb.walker.walkRequestOrigin_Completed::Inst            0                       # Table walker requests started/completed, data/inst
system.cpu.itb.stage2_mmu.stage2_tlb.walker.walkRequestOrigin_Completed::total            0                       # Table walker requests started/completed, data/inst
system.cpu.itb.stage2_mmu.stage2_tlb.walker.walkRequestOrigin::total            0                       # Table walker requests started/completed, data/inst
system.cpu.itb.stage2_mmu.stage2_tlb.walker.walks            0                       # Table walker walks requested
system.cpu.itb.stage2_mmu.stage2_tlb.write_accesses            0                       # DTB write accesses
system.cpu.itb.stage2_mmu.stage2_tlb.write_hits            0                       # DTB write hits
system.cpu.itb.stage2_mmu.stage2_tlb.write_misses            0                       # DTB write misses
system.cpu.itb.walker.walkRequestOrigin_Requested::Data            0                       # Table walker requests started/completed, data/inst
system.cpu.itb.walker.walkRequestOrigin_Requested::Inst            0                       # Table walker requests started/completed, data/inst
system.cpu.itb.walker.walkRequestOrigin_Requested::total            0                       # Table walker requests started/completed, data/inst
system.cpu.itb.walker.walkRequestOrigin_Completed::Data            0                       # Table walker requests started/completed, data/inst
system.cpu.itb.walker.walkRequestOrigin_Completed::Inst            0                       # Table walker requests started/completed, data/inst
system.cpu.itb.walker.walkRequestOrigin_Completed::total            0                       # Table walker requests started/completed, data/inst
system.cpu.itb.walker.walkRequestOrigin::total            0                       # Table walker requests started/completed, data/inst
system.cpu.itb.walker.walks                         0                       # Table walker walks requested
system.cpu.itb.write_accesses                       0                       # DTB write accesses
system.cpu.itb.write_hits                           0                       # DTB write hits
system.cpu.itb.write_misses                         0                       # DTB write misses
system.cpu.numCycles                        155438934                       # number of cpu cycles simulated
system.cpu.numFetchSuspends                         0                       # Number of times Execute suspended instruction fetching
system.cpu.numWorkItemsCompleted                    0                       # number of work items this cpu completed
system.cpu.numWorkItemsStarted                      0                       # number of work items this cpu started
system.cpu.op_class_0::No_OpClass                   0      0.00%      0.00% # Class of committed instruction
system.cpu.op_class_0::IntAlu                46443154     46.35%     46.35% # Class of committed instruction
system.cpu.op_class_0::IntMult                  20720      0.02%     46.37% # Class of committed instruction
system.cpu.op_class_0::IntDiv                       0      0.00%     46.37% # Class of committed instruction
system.cpu.op_class_0::FloatAdd                     0      0.00%     46.37% # Class of committed instruction
system.cpu.op_class_0::FloatCmp                     0      0.00%     46.37% # Class of committed instruction
system.cpu.op_class_0::FloatCvt                     0      0.00%     46.37% # Class of committed instruction
system.cpu.op_class_0::FloatMult                    0      0.00%     46.37% # Class of committed instruction
system.cpu.op_class_0::FloatMultAcc                 0      0.00%     46.37% # Class of committed instruction
system.cpu.op_class_0::FloatDiv                     0      0.00%     46.37% # Class of committed instruction
system.cpu.op_class_0::FloatMisc                    0      0.00%     46.37% # Class of committed instruction
system.cpu.op_class_0::FloatSqrt                    0      0.00%     46.37% # Class of committed instruction
system.cpu.op_class_0::SimdAdd                      0      0.00%     46.37% # Class of committed instruction
system.cpu.op_class_0::SimdAddAcc                   0      0.00%     46.37% # Class of committed instruction
system.cpu.op_class_0::SimdAlu                      0      0.00%     46.37% # Class of committed instruction
system.cpu.op_class_0::SimdCmp                      0      0.00%     46.37% # Class of committed instruction
system.cpu.op_class_0::SimdCvt                      0      0.00%     46.37% # Class of committed instruction
system.cpu.op_class_0::SimdMisc                     0      0.00%     46.37% # Class of committed instruction
system.cpu.op_class_0::SimdMult                     0      0.00%     46.37% # Class of committed instruction
system.cpu.op_class_0::SimdMultAcc                  0      0.00%     46.37% # Class of committed instruction
system.cpu.op_class_0::SimdShift                    0      0.00%     46.37% # Class of committed instruction
system.cpu.op_class_0::SimdShiftAcc                 0      0.00%     46.37% # Class of committed instruction
system.cpu.op_class_0::SimdDiv                      0      0.00%     46.37% # Class of committed instruction
system.cpu.op_class_0::SimdSqrt                     0      0.00%     46.37% # Class of committed instruction
system.cpu.op_class_0::SimdFloatAdd                 0      0.00%     46.37% # Class of committed instruction
system.cpu.op_class_0::SimdFloatAlu                 0      0.00%     46.37% # Class of committed instruction
system.cpu.op_class_0::SimdFloatCmp                 0      0.00%     46.37% # Class of committed instruction
system.cpu.op_class_0::SimdFloatCvt                 0      0.00%     46.37% # Class of committed instruction
system.cpu.op_class_0::SimdFloatDiv                 0      0.00%     46.37% # Class of committed instruction
system.cpu.op_class_0::SimdFloatMisc                1      0.00%     46.37% # Class of committed instruction
system.cpu.op_class_0::SimdFloatMult                0      0.00%     46.37% # Class of committed instruction
system.cpu.op_class_0::SimdFloatMultAcc             0      0.00%     46.37% # Class of committed instruction
system.cpu.op_class_0::SimdFloatSqrt                0      0.00%     46.37% # Class of committed instruction
system.cpu.op_class_0::SimdReduceAdd                0      0.00%     46.37% # Class of committed instruction
system.cpu.op_class_0::SimdReduceAlu                0      0.00%     46.37% # Class of committed instruction
system.cpu.op_class_0::SimdReduceCmp                0      0.00%     46.37% # Class of committed instruction
system.cpu.op_class_0::SimdFloatReduceAdd            0      0.00%     46.37% # Class of committed instruction
system.cpu.op_class_0::SimdFloatReduceCmp            0      0.00%     46.37% # Class of committed instruction
system.cpu.op_class_0::SimdAes                      0      0.00%     46.37% # Class of committed instruction
system.cpu.op_class_0::SimdAesMix                   0      0.00%     46.37% # Class of committed instruction
system.cpu.op_class_0::SimdSha1Hash                 0      0.00%     46.37% # Class of committed instruction
system.cpu.op_class_0::SimdSha1Hash2                0      0.00%     46.37% # Class of committed instruction
system.cpu.op_class_0::SimdSha256Hash               0      0.00%     46.37% # Class of committed instruction
system.cpu.op_class_0::SimdSha256Hash2              0      0.00%     46.37% # Class of committed instruction
system.cpu.op_class_0::SimdShaSigma2                0      0.00%     46.37% # Class of committed instruction
system.cpu.op_class_0::SimdShaSigma3                0      0.00%     46.37% # Class of committed instruction
system.cpu.op_class_0::SimdPredAlu                  0      0.00%     46.37% # Class of committed instruction
system.cpu.op_class_0::MemRead               42756988     42.67%     89.04% # Class of committed instruction
system.cpu.op_class_0::MemWrite              10978706     10.96%    100.00% # Class of committed instruction
system.cpu.op_class_0::FloatMemRead                 0      0.00%    100.00% # Class of committed instruction
system.cpu.op_class_0::FloatMemWrite                0      0.00%    100.00% # Class of committed instruction
system.cpu.op_class_0::IprAccess                    0      0.00%    100.00% # Class of committed instruction
system.cpu.op_class_0::InstPrefetch                 0      0.00%    100.00% # Class of committed instruction
system.cpu.op_class_0::total                100199569                       # Class of committed instruction
system.cpu.tickCycles                       132466990                       # Number of cycles that the object actually ticked
system.cpu.workload.numSyscalls                    85                       # Number of system calls
system.membus.snoop_filter.hit_multi_requests            0                       # Number of requests hitting in the snoop filter with multiple (>1) holders of the requested data.
system.membus.snoop_filter.hit_multi_snoops            0                       # Number of snoops hitting in the snoop filter with multiple (>1) holders of the requested data.
system.membus.snoop_filter.hit_single_requests       113706                       # Number of requests hitting in the snoop filter with a single holder of the requested data.
system.membus.snoop_filter.hit_single_snoops            0                       # Number of snoops hitting in the snoop filter with a single holder of the requested data.
system.membus.snoop_filter.tot_requests        293029                       # Total number of requests made to the snoop filter.
system.membus.snoop_filter.tot_snoops               0                       # Total number of snoops made to the snoop filter.
system.tol2bus.snoop_filter.hit_multi_requests           57                       # Number of requests hitting in the snoop filter with multiple (>1) holders of the requested data.
system.tol2bus.snoop_filter.hit_multi_snoops            0                       # Number of snoops hitting in the snoop filter with multiple (>1) holders of the requested data.
system.tol2bus.snoop_filter.hit_single_requests       467941                       # Number of requests hitting in the snoop filter with a single holder of the requested data.
system.tol2bus.snoop_filter.hit_single_snoops          334                       # Number of snoops hitting in the snoop filter with a single holder of the requested data.
system.tol2bus.snoop_filter.tot_requests       938182                       # Total number of requests made to the snoop filter.
system.tol2bus.snoop_filter.tot_snoops            334                       # Total number of snoops made to the snoop filter.
system.membus.pwrStateResidencyTicks::UNDEFINED 155438934000                       # Cumulative time (in ticks) in various power states
system.membus.trans_dist::ReadResp              51665                       # Transaction distribution
system.membus.trans_dist::WritebackDirty        68543                       # Transaction distribution
system.membus.trans_dist::CleanEvict            45158                       # Transaction distribution
system.membus.trans_dist::ReadExReq            127663                       # Transaction distribution
system.membus.trans_dist::ReadExResp           127663                       # Transaction distribution
system.membus.trans_dist::ReadSharedReq         51665                       # Transaction distribution
system.membus.pkt_count_system.l2.mem_side::system.mem_ctrls.port       472357                       # Packet count per connected master and slave (bytes)
system.membus.pkt_count::total                 472357                       # Packet count per connected master and slave (bytes)
system.membus.pkt_size_system.l2.mem_side::system.mem_ctrls.port     15863744                       # Cumulative packet size per connected master and slave (bytes)
system.membus.pkt_size::total                15863744                       # Cumulative packet size per connected master and slave (bytes)
system.membus.snoops                                0                       # Total snoops (count)
system.membus.snoopTraffic                          0                       # Total snoop traffic (bytes)
system.membus.snoop_fanout::samples            179328                       # Request fanout histogram
system.membus.snoop_fanout::mean                    0                       # Request fanout histogram
system.membus.snoop_fanout::stdev                   0                       # Request fanout histogram
system.membus.snoop_fanout::underflows              0      0.00%      0.00% # Request fanout histogram
system.membus.snoop_fanout::0                  179328    100.00%    100.00% # Request fanout histogram
system.membus.snoop_fanout::1                       0      0.00%    100.00% # Request fanout histogram
system.membus.snoop_fanout::overflows               0      0.00%    100.00% # Request fanout histogram
system.membus.snoop_fanout::min_value               0                       # Request fanout histogram
system.membus.snoop_fanout::max_value               0                       # Request fanout histogram
system.membus.snoop_fanout::total              179328                       # Request fanout histogram
system.membus.respLayer1.occupancy          967980000                       # Layer occupancy (ticks)
system.membus.respLayer1.utilization              0.6                       # Layer utilization (%)
system.membus.reqLayer0.occupancy           567201000                       # Layer occupancy (ticks)
system.membus.reqLayer0.utilization               0.4                       # Layer utilization (%)
system.tol2bus.pwrStateResidencyTicks::UNDEFINED 155438934000                       # Cumulative time (in ticks) in various power states
system.tol2bus.trans_dist::ReadResp            244108                       # Transaction distribution
system.tol2bus.trans_dist::WritebackDirty       481115                       # Transaction distribution
system.tol2bus.trans_dist::WritebackClean          550                       # Transaction distribution
system.tol2bus.trans_dist::CleanEvict          100309                       # Transaction distribution
system.tol2bus.trans_dist::ReadExReq           226135                       # Transaction distribution
system.tol2bus.trans_dist::ReadExResp          226135                       # Transaction distribution
system.tol2bus.trans_dist::ReadCleanReq           806                       # Transaction distribution
system.tol2bus.trans_dist::ReadSharedReq       243302                       # Transaction distribution
system.tol2bus.pkt_count_system.cpu.icache.mem_side::system.l2.cpu_side         2162                       # Packet count per connected master and slave (bytes)
system.tol2bus.pkt_count_system.cpu.dcache.mem_side::system.l2.cpu_side      1406263                       # Packet count per connected master and slave (bytes)
system.tol2bus.pkt_count::total               1408425                       # Packet count per connected master and slave (bytes)
system.tol2bus.pkt_size_system.cpu.icache.mem_side::system.l2.cpu_side        86784                       # Cumulative packet size per connected master and slave (bytes)
system.tol2bus.pkt_size_system.cpu.dcache.mem_side::system.l2.cpu_side     56448576                       # Cumulative packet size per connected master and slave (bytes)
system.tol2bus.pkt_size::total               56535360                       # Cumulative packet size per connected master and slave (bytes)
system.tol2bus.snoops                          114035                       # Total snoops (count)
system.tol2bus.snoopTraffic                   4386752                       # Total snoop traffic (bytes)
system.tol2bus.snoop_fanout::samples           584278                       # Request fanout histogram
system.tol2bus.snoop_fanout::mean            0.000673                       # Request fanout histogram
system.tol2bus.snoop_fanout::stdev           0.025926                       # Request fanout histogram
system.tol2bus.snoop_fanout::underflows             0      0.00%      0.00% # Request fanout histogram
system.tol2bus.snoop_fanout::0                 583885     99.93%     99.93% # Request fanout histogram
system.tol2bus.snoop_fanout::1                    393      0.07%    100.00% # Request fanout histogram
system.tol2bus.snoop_fanout::2                      0      0.00%    100.00% # Request fanout histogram
system.tol2bus.snoop_fanout::overflows              0      0.00%    100.00% # Request fanout histogram
system.tol2bus.snoop_fanout::min_value              0                       # Request fanout histogram
system.tol2bus.snoop_fanout::max_value              1                       # Request fanout histogram
system.tol2bus.snoop_fanout::total             584278                       # Request fanout histogram
system.tol2bus.reqLayer0.occupancy         1764426000                       # Layer occupancy (ticks)
system.tol2bus.reqLayer0.utilization              1.1                       # Layer utilization (%)
system.tol2bus.respLayer1.occupancy        1408315995                       # Layer occupancy (ticks)
system.tol2bus.respLayer1.utilization             0.9                       # Layer utilization (%)
system.tol2bus.respLayer0.occupancy           2418000                       # Layer occupancy (ticks)
system.tol2bus.respLayer0.utilization             0.0                       # Layer utilization (%)
system.voltage_domain.voltage                       1                       # Voltage in Volts
system.clk_domain.clock                          1000                       # Clock period in ticks
system.l2.pwrStateResidencyTicks::UNDEFINED 155438934000                       # Cumulative time (in ticks) in various power states
system.l2.demand_hits::.cpu.inst                  125                       # number of demand (read+write) hits
system.l2.demand_hits::.cpu.data               290785                       # number of demand (read+write) hits
system.l2.demand_hits::total                   290910                       # number of demand (read+write) hits
system.l2.overall_hits::.cpu.inst                 125                       # number of overall hits
system.l2.overall_hits::.cpu.data              290785                       # number of overall hits
system.l2.overall_hits::total                  290910                       # number of overall hits
system.l2.demand_misses::.cpu.inst                681                       # number of demand (read+write) misses
system.l2.demand_misses::.cpu.data             178652                       # number of demand (read+write) misses
system.l2.demand_misses::total                 179333                       # number of demand (read+write) misses
system.l2.overall_misses::.cpu.inst               681                       # number of overall misses
system.l2.overall_misses::.cpu.data            178652                       # number of overall misses
system.l2.overall_misses::total                179333                       # number of overall misses
system.l2.demand_miss_latency::.cpu.inst     67370000                       # number of demand (read+write) miss cycles
system.l2.demand_miss_latency::.cpu.data  18386737000                       # number of demand (read+write) miss cycles
system.l2.demand_miss_latency::total      18454107000                       # number of demand (read+write) miss cycles
system.l2.overall_miss_latency::.cpu.inst     67370000                       # number of overall miss cycles
system.l2.overall_miss_latency::.cpu.data  18386737000                       # number of overall miss cycles
system.l2.overall_miss_latency::total     18454107000                       # number of overall miss cycles
system.l2.demand_accesses::.cpu.inst              806                       # number of demand (read+write) accesses
system.l2.demand_accesses::.cpu.data           469437                       # number of demand (read+write) accesses
system.l2.demand_accesses::total               470243                       # number of demand (read+write) accesses
system.l2.overall_accesses::.cpu.inst             806                       # number of overall (read+write) accesses
system.l2.overall_accesses::.cpu.data          469437                       # number of overall (read+write) accesses
system.l2.overall_accesses::total              470243                       # number of overall (read+write) accesses
system.l2.demand_miss_rate::.cpu.inst        0.844913                       # miss rate for demand accesses
system.l2.demand_miss_rate::.cpu.data        0.380567                       # miss rate for demand accesses
system.l2.demand_miss_rate::total            0.381362                       # miss rate for demand accesses
system.l2.overall_miss_rate::.cpu.inst       0.844913                       # miss rate for overall accesses
system.l2.overall_miss_rate::.cpu.data       0.380567                       # miss rate for overall accesses
system.l2.overall_miss_rate::total           0.381362                       # miss rate for overall accesses
system.l2.demand_avg_miss_latency::.cpu.inst 98928.046990                       # average overall miss latency
system.l2.demand_avg_miss_latency::.cpu.data 102919.290016                       # average overall miss latency
system.l2.demand_avg_miss_latency::total 102904.133651                       # average overall miss latency
system.l2.overall_avg_miss_latency::.cpu.inst 98928.046990                       # average overall miss latency
system.l2.overall_avg_miss_latency::.cpu.data 102919.290016                       # average overall miss latency
system.l2.overall_avg_miss_latency::total 102904.133651                       # average overall miss latency
system.l2.blocked_cycles::no_mshrs                  0                       # number of cycles access was blocked
system.l2.blocked_cycles::no_targets                0                       # number of cycles access was blocked
system.l2.blocked::no_mshrs                         0                       # number of cycles access was blocked
system.l2.blocked::no_targets                       0                       # number of cycles access was blocked
system.l2.avg_blocked_cycles::no_mshrs            nan                       # average number of cycles each access was blocked
system.l2.avg_blocked_cycles::no_targets          nan                       # average number of cycles each access was blocked
system.l2.writebacks::.writebacks               68543                       # number of writebacks
system.l2.writebacks::total                     68543                       # number of writebacks
system.l2.demand_mshr_hits::.cpu.data               5                       # number of demand (read+write) MSHR hits
system.l2.demand_mshr_hits::total                   5                       # number of demand (read+write) MSHR hits
system.l2.overall_mshr_hits::.cpu.data              5                       # number of overall MSHR hits
system.l2.overall_mshr_hits::total                  5                       # number of overall MSHR hits
system.l2.demand_mshr_misses::.cpu.inst           681                       # number of demand (read+write) MSHR misses
system.l2.demand_mshr_misses::.cpu.data        178647                       # number of demand (read+write) MSHR misses
system.l2.demand_mshr_misses::total            179328                       # number of demand (read+write) MSHR misses
system.l2.overall_mshr_misses::.cpu.inst          681                       # number of overall MSHR misses
system.l2.overall_mshr_misses::.cpu.data       178647                       # number of overall MSHR misses
system.l2.overall_mshr_misses::total           179328                       # number of overall MSHR misses
system.l2.demand_mshr_miss_latency::.cpu.inst     53750000                       # number of demand (read+write) MSHR miss cycles
system.l2.demand_mshr_miss_latency::.cpu.data  14813386000                       # number of demand (read+write) MSHR miss cycles
system.l2.demand_mshr_miss_latency::total  14867136000                       # number of demand (read+write) MSHR miss cycles
system.l2.overall_mshr_miss_latency::.cpu.inst     53750000                       # number of overall MSHR miss cycles
system.l2.overall_mshr_miss_latency::.cpu.data  14813386000                       # number of overall MSHR miss cycles
system.l2.overall_mshr_miss_latency::total  14867136000                       # number of overall MSHR miss cycles
system.l2.demand_mshr_miss_rate::.cpu.inst     0.844913                       # mshr miss rate for demand accesses
system.l2.demand_mshr_miss_rate::.cpu.data     0.380556                       # mshr miss rate for demand accesses
system.l2.demand_mshr_miss_rate::total       0.381352                       # mshr miss rate for demand accesses
system.l2.overall_mshr_miss_rate::.cpu.inst     0.844913                       # mshr miss rate for overall accesses
system.l2.overall_mshr_miss_rate::.cpu.data     0.380556                       # mshr miss rate for overall accesses
system.l2.overall_mshr_miss_rate::total      0.381352                       # mshr miss rate for overall accesses
system.l2.demand_avg_mshr_miss_latency::.cpu.inst 78928.046990                       # average overall mshr miss latency
system.l2.demand_avg_mshr_miss_latency::.cpu.data 82919.869911                       # average overall mshr miss latency
system.l2.demand_avg_mshr_miss_latency::total 82904.710921                       # average overall mshr miss latency
system.l2.overall_avg_mshr_miss_latency::.cpu.inst 78928.046990                       # average overall mshr miss latency
system.l2.overall_avg_mshr_miss_latency::.cpu.data 82919.869911                       # average overall mshr miss latency
system.l2.overall_avg_mshr_miss_latency::total 82904.710921                       # average overall mshr miss latency
system.l2.replacements                         114035                       # number of replacements
system.l2.WritebackDirty_hits::.writebacks       412572                       # number of WritebackDirty hits
system.l2.WritebackDirty_hits::total           412572                       # number of WritebackDirty hits
system.l2.WritebackDirty_accesses::.writebacks       412572                       # number of WritebackDirty accesses(hits+misses)
system.l2.WritebackDirty_accesses::total       412572                       # number of WritebackDirty accesses(hits+misses)
system.l2.WritebackClean_hits::.writebacks          533                       # number of WritebackClean hits
system.l2.WritebackClean_hits::total              533                       # number of WritebackClean hits
system.l2.WritebackClean_accesses::.writebacks          533                       # number of WritebackClean accesses(hits+misses)
system.l2.WritebackClean_accesses::total          533                       # number of WritebackClean accesses(hits+misses)
system.l2.ReadExReq_hits::.cpu.data             98472                       # number of ReadExReq hits
system.l2.ReadExReq_hits::total                 98472                       # number of ReadExReq hits
system.l2.ReadExReq_misses::.cpu.data          127663                       # number of ReadExReq misses
system.l2.ReadExReq_misses::total              127663                       # number of ReadExReq misses
system.l2.ReadExReq_miss_latency::.cpu.data  13379314000                       # number of ReadExReq miss cycles
system.l2.ReadExReq_miss_latency::total   13379314000                       # number of ReadExReq miss cycles
system.l2.ReadExReq_accesses::.cpu.data        226135                       # number of ReadExReq accesses(hits+misses)
system.l2.ReadExReq_accesses::total            226135                       # number of ReadExReq accesses(hits+misses)
system.l2.ReadExReq_miss_rate::.cpu.data     0.564543                       # miss rate for ReadExReq accesses
system.l2.ReadExReq_miss_rate::total         0.564543                       # miss rate for ReadExReq accesses
system.l2.ReadExReq_avg_miss_latency::.cpu.data 104801.814151                       # average ReadExReq miss latency
system.l2.ReadExReq_avg_miss_latency::total 104801.814151                       # average ReadExReq miss latency
system.l2.ReadExReq_mshr_misses::.cpu.data       127663                       # number of ReadExReq MSHR misses
system.l2.ReadExReq_mshr_misses::total         127663                       # number of ReadExReq MSHR misses
system.l2.ReadExReq_mshr_miss_latency::.cpu.data  10826054000                       # number of ReadExReq MSHR miss cycles
system.l2.ReadExReq_mshr_miss_latency::total  10826054000                       # number of ReadExReq MSHR miss cycles
system.l2.ReadExReq_mshr_miss_rate::.cpu.data     0.564543                       # mshr miss rate for ReadExReq accesses
system.l2.ReadExReq_mshr_miss_rate::total     0.564543                       # mshr miss rate for ReadExReq accesses
system.l2.ReadExReq_avg_mshr_miss_latency::.cpu.data 84801.814151                       # average ReadExReq mshr miss latency
system.l2.ReadExReq_avg_mshr_miss_latency::total 84801.814151                       # average ReadExReq mshr miss latency
system.l2.ReadCleanReq_hits::.cpu.inst            125                       # number of ReadCleanReq hits
system.l2.ReadCleanReq_hits::total                125                       # number of ReadCleanReq hits
system.l2.ReadCleanReq_misses::.cpu.inst          681                       # number of ReadCleanReq misses
system.l2.ReadCleanReq_misses::total              681                       # number of ReadCleanReq misses
system.l2.ReadCleanReq_miss_latency::.cpu.inst     67370000                       # number of ReadCleanReq miss cycles
system.l2.ReadCleanReq_miss_latency::total     67370000                       # number of ReadCleanReq miss cycles
system.l2.ReadCleanReq_accesses::.cpu.inst          806                       # number of ReadCleanReq accesses(hits+misses)
system.l2.ReadCleanReq_accesses::total            806                       # number of ReadCleanReq accesses(hits+misses)
system.l2.ReadCleanReq_miss_rate::.cpu.inst     0.844913                       # miss rate for ReadCleanReq accesses
system.l2.ReadCleanReq_miss_rate::total      0.844913                       # miss rate for ReadCleanReq accesses
system.l2.ReadCleanReq_avg_miss_latency::.cpu.inst 98928.046990                       # average ReadCleanReq miss latency
system.l2.ReadCleanReq_avg_miss_latency::total 98928.046990                       # average ReadCleanReq miss latency
system.l2.ReadCleanReq_mshr_misses::.cpu.inst          681                       # number of ReadCleanReq MSHR misses
system.l2.ReadCleanReq_mshr_misses::total          681                       # number of ReadCleanReq MSHR misses
system.l2.ReadCleanReq_mshr_miss_latency::.cpu.inst     53750000                       # number of ReadCleanReq MSHR miss cycles
system.l2.ReadCleanReq_mshr_miss_latency::total     53750000                       # number of ReadCleanReq MSHR miss cycles
system.l2.ReadCleanReq_mshr_miss_rate::.cpu.inst     0.844913                       # mshr miss rate for ReadCleanReq accesses
system.l2.ReadCleanReq_mshr_miss_rate::total     0.844913                       # mshr miss rate for ReadCleanReq accesses
system.l2.ReadCleanReq_avg_mshr_miss_latency::.cpu.inst 78928.046990                       # average ReadCleanReq mshr miss latency
system.l2.ReadCleanReq_avg_mshr_miss_latency::total 78928.046990                       # average ReadCleanReq mshr miss latency
system.l2.ReadSharedReq_hits::.cpu.data        192313                       # number of ReadSharedReq hits
system.l2.ReadSharedReq_hits::total            192313                       # number of ReadSharedReq hits
system.l2.ReadSharedReq_misses::.cpu.data        50989                       # number of ReadSharedReq misses
system.l2.ReadSharedReq_misses::total           50989                       # number of ReadSharedReq misses
system.l2.ReadSharedReq_miss_latency::.cpu.data   5007423000                       # number of ReadSharedReq miss cycles
system.l2.ReadSharedReq_miss_latency::total   5007423000                       # number of ReadSharedReq miss cycles
system.l2.ReadSharedReq_accesses::.cpu.data       243302                       # number of ReadSharedReq accesses(hits+misses)
system.l2.ReadSharedReq_accesses::total        243302                       # number of ReadSharedReq accesses(hits+misses)
system.l2.ReadSharedReq_miss_rate::.cpu.data     0.209571                       # miss rate for ReadSharedReq accesses
system.l2.ReadSharedReq_miss_rate::total     0.209571                       # miss rate for ReadSharedReq accesses
system.l2.ReadSharedReq_avg_miss_latency::.cpu.data 98205.946381                       # average ReadSharedReq miss latency
system.l2.ReadSharedReq_avg_miss_latency::total 98205.946381                       # average ReadSharedReq miss latency
system.l2.ReadSharedReq_mshr_hits::.cpu.data            5                       # number of ReadSharedReq MSHR hits
system.l2.ReadSharedReq_mshr_hits::total            5                       # number of ReadSharedReq MSHR hits
system.l2.ReadSharedReq_mshr_misses::.cpu.data        50984                       # number of ReadSharedReq MSHR misses
system.l2.ReadSharedReq_mshr_misses::total        50984                       # number of ReadSharedReq MSHR misses
system.l2.ReadSharedReq_mshr_miss_latency::.cpu.data   3987332000                       # number of ReadSharedReq MSHR miss cycles
system.l2.ReadSharedReq_mshr_miss_latency::total   3987332000                       # number of ReadSharedReq MSHR miss cycles
system.l2.ReadSharedReq_mshr_miss_rate::.cpu.data     0.209550                       # mshr miss rate for ReadSharedReq accesses
system.l2.ReadSharedReq_mshr_miss_rate::total     0.209550                       # mshr miss rate for ReadSharedReq accesses
system.l2.ReadSharedReq_avg_mshr_miss_latency::.cpu.data 78207.516083                       # average ReadSharedReq mshr miss latency
system.l2.ReadSharedReq_avg_mshr_miss_latency::total 78207.516083                       # average ReadSharedReq mshr miss latency
system.l2.tags.pwrStateResidencyTicks::UNDEFINED 155438934000                       # Cumulative time (in ticks) in various power states
system.l2.tags.tagsinuse                 63844.280989                       # Cycle average of tags in use
system.l2.tags.total_refs                      938120                       # Total number of references to valid blocks.
system.l2.tags.sampled_refs                    179571                       # Sample count of references to valid blocks.
system.l2.tags.avg_refs                      5.224229                       # Average number of references to valid blocks.
system.l2.tags.warmup_cycle                     87000                       # Cycle when the warmup percentage was hit.
system.l2.tags.occ_blocks::.writebacks     101.776431                       # Average occupied blocks per requestor
system.l2.tags.occ_blocks::.cpu.inst       131.673289                       # Average occupied blocks per requestor
system.l2.tags.occ_blocks::.cpu.data     63610.831270                       # Average occupied blocks per requestor
system.l2.tags.occ_percent::.writebacks      0.001553                       # Average percentage of cache occupancy
system.l2.tags.occ_percent::.cpu.inst        0.002009                       # Average percentage of cache occupancy
system.l2.tags.occ_percent::.cpu.data        0.970624                       # Average percentage of cache occupancy
system.l2.tags.occ_percent::total            0.974186                       # Average percentage of cache occupancy
system.l2.tags.occ_task_id_blocks::1024         65536                       # Occupied blocks per task id
system.l2.tags.age_task_id_blocks_1024::2            3                       # Occupied blocks per task id
system.l2.tags.age_task_id_blocks_1024::3           23                       # Occupied blocks per task id
system.l2.tags.age_task_id_blocks_1024::4        65510                       # Occupied blocks per task id
system.l2.tags.occ_task_id_percent::1024            1                       # Percentage of cache occupancy per task id
system.l2.tags.tag_accesses                   7684571                       # Number of tag accesses
system.l2.tags.data_accesses                  7684571                       # Number of data accesses
system.cpu_voltage_domain.voltage                   1                       # Voltage in Volts
system.mem_ctrls.pwrStateResidencyTicks::UNDEFINED 155438934000                       # Cumulative time (in ticks) in various power states
system.mem_ctrls.bytes_read::.cpu.inst          43584                       # Number of bytes read from this memory
system.mem_ctrls.bytes_read::.cpu.data       11433408                       # Number of bytes read from this memory
system.mem_ctrls.bytes_read::total           11476992                       # Number of bytes read from this memory
system.mem_ctrls.bytes_inst_read::.cpu.inst        43584                       # Number of instructions bytes read from this memory
system.mem_ctrls.bytes_inst_read::total         43584                       # Number of instructions bytes read from this memory
system.mem_ctrls.bytes_written::.writebacks      4386752                       # Number of bytes written to this memory
system.mem_ctrls.bytes_written::total         4386752                       # Number of bytes written to this memory
system.mem_ctrls.num_reads::.cpu.inst             681                       # Number of read requests responded to by this memory
system.mem_ctrls.num_reads::.cpu.data          178647                       # Number of read requests responded to by this memory
system.mem_ctrls.num_reads::total              179328                       # Number of read requests responded to by this memory
system.mem_ctrls.num_writes::.writebacks        68543                       # Number of write requests responded to by this memory
system.mem_ctrls.num_writes::total              68543                       # Number of write requests responded to by this memory
system.mem_ctrls.bw_read::.cpu.inst            280393                       # Total read bandwidth from this memory (bytes/s)
system.mem_ctrls.bw_read::.cpu.data          73555625                       # Total read bandwidth from this memory (bytes/s)
system.mem_ctrls.bw_read::total              73836018                       # Total read bandwidth from this memory (bytes/s)
system.mem_ctrls.bw_inst_read::.cpu.inst       280393                       # Instruction read bandwidth from this memory (bytes/s)
system.mem_ctrls.bw_inst_read::total           280393                       # Instruction read bandwidth from this memory (bytes/s)
system.mem_ctrls.bw_write::.writebacks       28221707                       # Write bandwidth from this memory (bytes/s)
system.mem_ctrls.bw_write::total             28221707                       # Write bandwidth from this memory (bytes/s)
system.mem_ctrls.bw_total::.writebacks       28221707                       # Total bandwidth to/from this memory (bytes/s)
system.mem_ctrls.bw_total::.cpu.inst           280393                       # Total bandwidth to/from this memory (bytes/s)
system.mem_ctrls.bw_total::.cpu.data         73555625                       # Total bandwidth to/from this memory (bytes/s)
system.mem_ctrls.bw_total::total            102057725                       # Total bandwidth to/from this memory (bytes/s)
system.mem_ctrls.avgPriority_.writebacks::samples     68543.00                       # Average QoS priority value for accepted requests
system.mem_ctrls.avgPriority_.cpu.inst::samples       681.00                       # Average QoS priority value for accepted requests
system.mem_ctrls.avgPriority_.cpu.data::samples    178636.00                       # Average QoS priority value for accepted requests
system.mem_ctrls.priorityMinLatency      0.000000018750                       # per QoS priority minimum request to response latency (s)
system.mem_ctrls.priorityMaxLatency      0.007509280500                       # per QoS priority maximum request to response latency (s)
system.mem_ctrls.numReadWriteTurnArounds         4107                       # Number of turnarounds from READ to WRITE
system.mem_ctrls.numWriteReadTurnArounds         4107                       # Number of turnarounds from WRITE to READ
system.mem_ctrls.numStayReadState              460429                       # Number of times bus staying in READ state
system.mem_ctrls.numStayWriteState              64489                       # Number of times bus staying in WRITE state
system.mem_ctrls.readReqs                      179328                       # Number of read requests accepted
system.mem_ctrls.writeReqs                      68543                       # Number of write requests accepted
system.mem_ctrls.readBursts                    179328                       # Number of DRAM read bursts, including those serviced by the write queue
system.mem_ctrls.writeBursts                    68543                       # Number of DRAM write bursts, including those merged in the write queue
system.mem_ctrls.servicedByWrQ                     11                       # Number of DRAM read bursts serviced by the write queue
system.mem_ctrls.mergedWrBursts                     0                       # Number of DRAM write bursts merged with an existing one
system.mem_ctrls.neitherReadNorWriteReqs            0                       # Number of requests that are neither read nor write
system.mem_ctrls.perBankRdBursts::0             11456                       # Per bank write bursts
system.mem_ctrls.perBankRdBursts::1             11359                       # Per bank write bursts
system.mem_ctrls.perBankRdBursts::2             11260                       # Per bank write bursts
system.mem_ctrls.perBankRdBursts::3             11019                       # Per bank write bursts
system.mem_ctrls.perBankRdBursts::4             11014                       # Per bank write bursts
system.mem_ctrls.perBankRdBursts::5             11199                       # Per bank write bursts
system.mem_ctrls.perBankRdBursts::6             11327                       # Per bank write bursts
system.mem_ctrls.perBankRdBursts::7             11191                       # Per bank write bursts
system.mem_ctrls.perBankRdBursts::8             11273                       # Per bank write bursts
system.mem_ctrls.perBankRdBursts::9             11177                       # Per bank write bursts
system.mem_ctrls.perBankRdBursts::10            11160                       # Per bank write bursts
system.mem_ctrls.perBankRdBursts::11            11274                       # Per bank write bursts
system.mem_ctrls.perBankRdBursts::12            11063                       # Per bank write bursts
system.mem_ctrls.perBankRdBursts::13            11111                       # Per bank write bursts
system.mem_ctrls.perBankRdBursts::14            11259                       # Per bank write bursts
system.mem_ctrls.perBankRdBursts::15            11175                       # Per bank write bursts
system.mem_ctrls.perBankWrBursts::0              4363                       # Per bank write bursts
system.mem_ctrls.perBankWrBursts::1              4392                       # Per bank write bursts
system.mem_ctrls.perBankWrBursts::2              4365                       # Per bank write bursts
system.mem_ctrls.perBankWrBursts::3              4284                       # Per bank write bursts
system.mem_ctrls.perBankWrBursts::4              4250                       # Per bank write bursts
system.mem_ctrls.perBankWrBursts::5              4288                       # Per bank write bursts
system.mem_ctrls.perBankWrBursts::6              4325                       # Per bank write bursts
system.mem_ctrls.perBankWrBursts::7              4224                       # Per bank write bursts
system.mem_ctrls.perBankWrBursts::8              4224                       # Per bank write bursts
system.mem_ctrls.perBankWrBursts::9              4224                       # Per bank write bursts
system.mem_ctrls.perBankWrBursts::10             4194                       # Per bank write bursts
system.mem_ctrls.perBankWrBursts::11             4224                       # Per bank write bursts
system.mem_ctrls.perBankWrBursts::12             4235                       # Per bank write bursts
system.mem_ctrls.perBankWrBursts::13             4226                       # Per bank write bursts
system.mem_ctrls.perBankWrBursts::14             4342                       # Per bank write bursts
system.mem_ctrls.perBankWrBursts::15             4352                       # Per bank write bursts
system.mem_ctrls.avgRdQLen                       1.04                       # Average read queue length when enqueuing
system.mem_ctrls.avgWrQLen                      24.41                       # Average write queue length when enqueuing
system.mem_ctrls.totQLat                   2283730500                       # Total ticks spent queuing
system.mem_ctrls.totBusLat                  896585000                       # Total ticks spent in databus transfers
system.mem_ctrls.totMemAccLat              5645924250                       # Total ticks spent from burst creation until serviced by the DRAM
system.mem_ctrls.avgQLat                     12735.72                       # Average queueing delay per DRAM burst
system.mem_ctrls.avgBusLat                    5000.00                       # Average bus latency per DRAM burst
system.mem_ctrls.avgMemAccLat                31485.72                       # Average memory access latency per DRAM burst
system.mem_ctrls.numRdRetry                         0                       # Number of times read queue was full causing retry
system.mem_ctrls.numWrRetry                         0                       # Number of times write queue was full causing retry
system.mem_ctrls.readRowHits                   125225                       # Number of row buffer hits during reads
system.mem_ctrls.writeRowHits                   50585                       # Number of row buffer hits during writes
system.mem_ctrls.readRowHitRate                 69.83                       # Row buffer hit rate for reads
system.mem_ctrls.writeRowHitRate                73.80                       # Row buffer hit rate for writes
system.mem_ctrls.readPktSize::0                     0                       # Read request sizes (log2)
system.mem_ctrls.readPktSize::1                     0                       # Read request sizes (log2)
system.mem_ctrls.readPktSize::2                     0                       # Read request sizes (log2)
system.mem_ctrls.readPktSize::3                     0                       # Read request sizes (log2)
system.mem_ctrls.readPktSize::4                     0                       # Read request sizes (log2)
system.mem_ctrls.readPktSize::5                     0                       # Read request sizes (log2)
system.mem_ctrls.readPktSize::6                179328                       # Read request sizes (log2)
system.mem_ctrls.writePktSize::0                    0                       # Write request sizes (log2)
system.mem_ctrls.writePktSize::1                    0                       # Write request sizes (log2)
system.mem_ctrls.writePktSize::2                    0                       # Write request sizes (log2)
system.mem_ctrls.writePktSize::3                    0                       # Write request sizes (log2)
system.mem_ctrls.writePktSize::4                    0                       # Write request sizes (log2)
system.mem_ctrls.writePktSize::5                    0                       # Write request sizes (log2)
system.mem_ctrls.writePktSize::6                68543                       # Write request sizes (log2)
system.mem_ctrls.rdQLenPdf::0                  131958                       # What read queue length does an incoming req see
system.mem_ctrls.rdQLenPdf::1                   46781                       # What read queue length does an incoming req see
system.mem_ctrls.rdQLenPdf::2                     358                       # What read queue length does an incoming req see
system.mem_ctrls.rdQLenPdf::3                     220                       # What read queue length does an incoming req see
system.mem_ctrls.rdQLenPdf::4                       0                       # What read queue length does an incoming req see
system.mem_ctrls.rdQLenPdf::5                       0                       # What read queue length does an incoming req see
system.mem_ctrls.rdQLenPdf::6                       0                       # What read queue length does an incoming req see
system.mem_ctrls.rdQLenPdf::7                       0                       # What read queue length does an incoming req see
system.mem_ctrls.rdQLenPdf::8                       0                       # What read queue length does an incoming req see
system.mem_ctrls.rdQLenPdf::9                       0                       # What read queue length does an incoming req see
system.mem_ctrls.rdQLenPdf::10                      0                       # What read queue length does an incoming req see
system.mem_ctrls.rdQLenPdf::11                      0                       # What read queue length does an incoming req see
system.mem_ctrls.rdQLenPdf::12                      0                       # What read queue length does an incoming req see
system.mem_ctrls.rdQLenPdf::13                      0                       # What read queue length does an incoming req see
system.mem_ctrls.rdQLenPdf::14                      0                       # What read queue length does an incoming req see
system.mem_ctrls.rdQLenPdf::15                      0                       # What read queue length does an incoming req see
system.mem_ctrls.rdQLenPdf::16                      0                       # What read queue length does an incoming req see
system.mem_ctrls.rdQLenPdf::17                      0                       # What read queue length does an incoming req see
system.mem_ctrls.rdQLenPdf::18                      0                       # What read queue length does an incoming req see
system.mem_ctrls.rdQLenPdf::19                      0                       # What read queue length does an incoming req see
system.mem_ctrls.rdQLenPdf::20                      0                       # What read queue length does an incoming req see
system.mem_ctrls.rdQLenPdf::21                      0                       # What read queue length does an incoming req see
system.mem_ctrls.rdQLenPdf::22                      0                       # What read queue length does an incoming req see
system.mem_ctrls.rdQLenPdf::23                      0                       # What read queue length does an incoming req see
system.mem_ctrls.rdQLenPdf::24                      0                       # What read queue length does an incoming req see
system.mem_ctrls.rdQLenPdf::25                      0                       # What read queue length does an incoming req see
system.mem_ctrls.rdQLenPdf::26                      0                       # What read queue length does an incoming req see
system.mem_ctrls.rdQLenPdf::27                      0                       # What read queue length does an incoming req see
system.mem_ctrls.rdQLenPdf::28                      0                       # What read queue length does an incoming req see
system.mem_ctrls.rdQLenPdf::29                      0                       # What read queue length does an incoming req see
system.mem_ctrls.rdQLenPdf::30                      0                       # What read queue length does an incoming req see
system.mem_ctrls.rdQLenPdf::31                      0                       # What read queue length does an incoming req see
system.mem_ctrls.wrQLenPdf::0                       1                       # What write queue length does an incoming req see
system.mem_ctrls.wrQLenPdf::1                       1                       # What write queue length does an incoming req see
system.mem_ctrls.wrQLenPdf::2                       1                       # What write queue length does an incoming req see
system.mem_ctrls.wrQLenPdf::3                       1                       # What write queue length does an incoming req see
system.mem_ctrls.wrQLenPdf::4                       1                       # What write queue length does an incoming req see
system.mem_ctrls.wrQLenPdf::5                       1                       # What write queue length does an incoming req see
system.mem_ctrls.wrQLenPdf::6                       1                       # What write queue length does an incoming req see
system.mem_ctrls.wrQLenPdf::7                       1                       # What write queue length does an incoming req see
system.mem_ctrls.wrQLenPdf::8                       1                       # What write queue length does an incoming req see
system.mem_ctrls.wrQLenPdf::9                       1                       # What write queue length does an incoming req see
system.mem_ctrls.wrQLenPdf::10                      1                       # What write queue length does an incoming req see
system.mem_ctrls.wrQLenPdf::11                      1                       # What write queue length does an incoming req see
system.mem_ctrls.wrQLenPdf::12                      1                       # What write queue length does an incoming req see
system.mem_ctrls.wrQLenPdf::13                      1                       # What write queue length does an incoming req see
system.mem_ctrls.wrQLenPdf::14                      1                       # What write queue length does an incoming req see
system.mem_ctrls.wrQLenPdf::15                   1306                       # What write queue length does an incoming req see
system.mem_ctrls.wrQLenPdf::16                   1393                       # What write queue length does an incoming req see
system.mem_ctrls.wrQLenPdf::17                   3585                       # What write queue length does an incoming req see
system.mem_ctrls.wrQLenPdf::18                   4004                       # What write queue length does an incoming req see
system.mem_ctrls.wrQLenPdf::19                   4104                       # What write queue length does an incoming req see
system.mem_ctrls.wrQLenPdf::20                   4141                       # What write queue length does an incoming req see
system.mem_ctrls.wrQLenPdf::21                   4187                       # What write queue length does an incoming req see
system.mem_ctrls.wrQLenPdf::22                   4159                       # What write queue length does an incoming req see
system.mem_ctrls.wrQLenPdf::23                   4185                       # What write queue length does an incoming req see
system.mem_ctrls.wrQLenPdf::24                   4217                       # What write queue length does an incoming req see
system.mem_ctrls.wrQLenPdf::25                   4163                       # What write queue length does an incoming req see
system.mem_ctrls.wrQLenPdf::26                   4195                       # What write queue length does an incoming req see
system.mem_ctrls.wrQLenPdf::27                   4164                       # What write queue length does an incoming req see
system.mem_ctrls.wrQLenPdf::28                   4138                       # What write queue length does an incoming req see
system.mem_ctrls.wrQLenPdf::29                   4173                       # What write queue length does an incoming req see
system.mem_ctrls.wrQLenPdf::30                   4132                       # What write queue length does an incoming req see
system.mem_ctrls.wrQLenPdf::31                   4171                       # What write queue length does an incoming req see
system.mem_ctrls.wrQLenPdf::32                   4109                       # What write queue length does an incoming req see
system.mem_ctrls.wrQLenPdf::33                      2                       # What write queue length does an incoming req see
system.mem_ctrls.wrQLenPdf::34                      0                       # What write queue length does an incoming req see
system.mem_ctrls.wrQLenPdf::35                      0                       # What write queue length does an incoming req see
system.mem_ctrls.wrQLenPdf::36                      0                       # What write queue length does an incoming req see
system.mem_ctrls.wrQLenPdf::37                      0                       # What write queue length does an incoming req see
system.mem_ctrls.wrQLenPdf::38                      0                       # What write queue length does an incoming req see
system.mem_ctrls.wrQLenPdf::39                      0                       # What write queue length does an incoming req see
system.mem_ctrls.wrQLenPdf::40                      0                       # What write queue length does an incoming req see
system.mem_ctrls.wrQLenPdf::41                      0                       # What write queue length does an incoming req see
system.mem_ctrls.wrQLenPdf::42                      0                       # What write queue length does an incoming req see
system.mem_ctrls.wrQLenPdf::43                      0                       # What write queue length does an incoming req see
system.mem_ctrls.wrQLenPdf::44                      0                       # What write queue length does an incoming req see
system.mem_ctrls.wrQLenPdf::45                      0                       # What write queue length does an incoming req see
system.mem_ctrls.wrQLenPdf::46                      0                       # What write queue length does an incoming req see
system.mem_ctrls.wrQLenPdf::47                      0                       # What write queue length does an incoming req see
system.mem_ctrls.wrQLenPdf::48                      0                       # What write queue length does an incoming req see
system.mem_ctrls.wrQLenPdf::49                      0                       # What write queue length does an incoming req see
system.mem_ctrls.wrQLenPdf::50                      0                       # What write queue length does an incoming req see
system.mem_ctrls.wrQLenPdf::51                      0                       # What write queue length does an incoming req see
system.mem_ctrls.wrQLenPdf::52                      0                       # What write queue length does an incoming req see
system.mem_ctrls.wrQLenPdf::53                      0                       # What write queue length does an incoming req see
system.mem_ctrls.wrQLenPdf::54                      0                       # What write queue length does an incoming req see
system.mem_ctrls.wrQLenPdf::55                      0                       # What write queue length does an incoming req see
system.mem_ctrls.wrQLenPdf::56                      0                       # What write queue length does an incoming req see
system.mem_ctrls.wrQLenPdf::57                      0                       # What write queue length does an incoming req see
system.mem_ctrls.wrQLenPdf::58                      0                       # What write queue length does an incoming req see
system.mem_ctrls.wrQLenPdf::59                      0                       # What write queue length does an incoming req see
system.mem_ctrls.wrQLenPdf::60                      0                       # What write queue length does an incoming req see
system.mem_ctrls.wrQLenPdf::61                      0                       # What write queue length does an incoming req see
system.mem_ctrls.wrQLenPdf::62                      0                       # What write queue length does an incoming req see
system.mem_ctrls.wrQLenPdf::63                      0                       # What write queue length does an incoming req see
system.mem_ctrls.bytesPerActivate::samples        72019                       # Bytes accessed per row activation
system.mem_ctrls.bytesPerActivate::mean    220.234327                       # Bytes accessed per row activation
system.mem_ctrls.bytesPerActivate::gmean   123.904313                       # Bytes accessed per row activation
system.mem_ctrls.bytesPerActivate::stdev   276.581879                       # Bytes accessed per row activation
system.mem_ctrls.bytesPerActivate::0-127        46311     64.30%     64.30% # Bytes accessed per row activation
system.mem_ctrls.bytesPerActivate::128-255         5862      8.14%     72.44% # Bytes accessed per row activation
system.mem_ctrls.bytesPerActivate::256-383         3853      5.35%     77.79% # Bytes accessed per row activation
system.mem_ctrls.bytesPerActivate::384-511         1665      2.31%     80.11% # Bytes accessed per row activation
system.mem_ctrls.bytesPerActivate::512-639         7996     11.10%     91.21% # Bytes accessed per row activation
system.mem_ctrls.bytesPerActivate::640-767          799      1.11%     92.32% # Bytes accessed per row activation
system.mem_ctrls.bytesPerActivate::768-895          419      0.58%     92.90% # Bytes accessed per row activation
system.mem_ctrls.bytesPerActivate::896-1023          371      0.52%     93.41% # Bytes accessed per row activation
system.mem_ctrls.bytesPerActivate::1024-1151         4743      6.59%    100.00% # Bytes accessed per row activation
system.mem_ctrls.bytesPerActivate::total        72019                       # Bytes accessed per row activation
system.mem_ctrls.rdPerTurnAround::samples         4107                       # Reads before turning the bus around for writes
system.mem_ctrls.rdPerTurnAround::mean      43.657901                       # Reads before turning the bus around for writes
system.mem_ctrls.rdPerTurnAround::gmean     27.947671                       # Reads before turning the bus around for writes
system.mem_ctrls.rdPerTurnAround::stdev     92.796501                       # Reads before turning the bus around for writes
system.mem_ctrls.rdPerTurnAround::0-255          3850     93.74%     93.74% # Reads before turning the bus around for writes
system.mem_ctrls.rdPerTurnAround::256-511          256      6.23%     99.98% # Reads before turning the bus around for writes
system.mem_ctrls.rdPerTurnAround::4352-4607            1      0.02%    100.00% # Reads before turning the bus around for writes
system.mem_ctrls.rdPerTurnAround::total          4107                       # Reads before turning the bus around for writes
system.mem_ctrls.wrPerTurnAround::samples         4107                       # Writes before turning the bus around for reads
system.mem_ctrls.wrPerTurnAround::mean      16.681763                       # Writes before turning the bus around for reads
system.mem_ctrls.wrPerTurnAround::gmean     16.653194                       # Writes before turning the bus around for reads
system.mem_ctrls.wrPerTurnAround::stdev      0.994023                       # Writes before turning the bus around for reads
system.mem_ctrls.wrPerTurnAround::16             2736     66.62%     66.62% # Writes before turning the bus around for reads
system.mem_ctrls.wrPerTurnAround::17               54      1.31%     67.93% # Writes before turning the bus around for reads
system.mem_ctrls.wrPerTurnAround::18             1242     30.24%     98.17% # Writes before turning the bus around for reads
[...]
system.cpu.icache.tags.occ_percent::total     0.975556                       # Average percentage of cache occupancy
system.cpu.icache.tags.occ_task_id_blocks::1024          256                       # Occupied blocks per task id
system.cpu.icache.tags.age_task_id_blocks_1024::4          256                       # Occupied blocks per task id
system.cpu.icache.tags.occ_task_id_percent::1024            1                       # Percentage of cache occupancy per task id
system.cpu.icache.tags.tag_accesses          20397706                       # Number of tag accesses
system.cpu.icache.tags.data_accesses         20397706                       # Number of data accesses
system.cpu.dtb.walker.pwrStateResidencyTicks::UNDEFINED 155438934000                       # Cumulative time (in ticks) in various power states
system.cpu.dtb.stage2_mmu.stage2_tlb.walker.pwrStateResidencyTicks::UNDEFINED 155438934000                       # Cumulative time (in ticks) in various power states
system.cpu.dcache.pwrStateResidencyTicks::UNDEFINED 155438934000                       # Cumulative time (in ticks) in various power states
system.cpu.dcache.demand_hits::.cpu.data     51640949                       # number of demand (read+write) hits
system.cpu.dcache.demand_hits::total         51640949                       # number of demand (read+write) hits
system.cpu.dcache.overall_hits::.cpu.data     51641456                       # number of overall hits
system.cpu.dcache.overall_hits::total        51641456                       # number of overall hits
system.cpu.dcache.demand_misses::.cpu.data       513946                       # number of demand (read+write) misses
system.cpu.dcache.demand_misses::total         513946                       # number of demand (read+write) misses
system.cpu.dcache.overall_misses::.cpu.data       521858                       # number of overall misses
system.cpu.dcache.overall_misses::total        521858                       # number of overall misses
system.cpu.dcache.demand_miss_latency::.cpu.data  27697881000                       # number of demand (read+write) miss cycles
system.cpu.dcache.demand_miss_latency::total  27697881000                       # number of demand (read+write) miss cycles
system.cpu.dcache.overall_miss_latency::.cpu.data  27697881000                       # number of overall miss cycles
system.cpu.dcache.overall_miss_latency::total  27697881000                       # number of overall miss cycles
system.cpu.dcache.demand_accesses::.cpu.data     52154895                       # number of demand (read+write) accesses
system.cpu.dcache.demand_accesses::total     52154895                       # number of demand (read+write) accesses
system.cpu.dcache.overall_accesses::.cpu.data     52163314                       # number of overall (read+write) accesses
system.cpu.dcache.overall_accesses::total     52163314                       # number of overall (read+write) accesses
system.cpu.dcache.demand_miss_rate::.cpu.data     0.009854                       # miss rate for demand accesses
system.cpu.dcache.demand_miss_rate::total     0.009854                       # miss rate for demand accesses
system.cpu.dcache.overall_miss_rate::.cpu.data     0.010004                       # miss rate for overall accesses
system.cpu.dcache.overall_miss_rate::total     0.010004                       # miss rate for overall accesses
system.cpu.dcache.demand_avg_miss_latency::.cpu.data 53892.589883                       # average overall miss latency
system.cpu.dcache.demand_avg_miss_latency::total 53892.589883                       # average overall miss latency
system.cpu.dcache.overall_avg_miss_latency::.cpu.data 53075.512879                       # average overall miss latency
system.cpu.dcache.overall_avg_miss_latency::total 53075.512879                       # average overall miss latency
system.cpu.dcache.blocked_cycles::no_mshrs        87829                       # number of cycles access was blocked
system.cpu.dcache.blocked_cycles::no_targets            0                       # number of cycles access was blocked
system.cpu.dcache.blocked::no_mshrs              2428                       # number of cycles access was blocked
system.cpu.dcache.blocked::no_targets               0                       # number of cycles access was blocked
system.cpu.dcache.avg_blocked_cycles::no_mshrs    36.173394                       # average number of cycles each access was blocked
system.cpu.dcache.avg_blocked_cycles::no_targets          nan                       # average number of cycles each access was blocked
system.cpu.dcache.writebacks::.writebacks       412572                       # number of writebacks
system.cpu.dcache.writebacks::total            412572                       # number of writebacks
system.cpu.dcache.demand_mshr_hits::.cpu.data        52420                       # number of demand (read+write) MSHR hits
system.cpu.dcache.demand_mshr_hits::total        52420                       # number of demand (read+write) MSHR hits
system.cpu.dcache.overall_mshr_hits::.cpu.data        52420                       # number of overall MSHR hits
system.cpu.dcache.overall_mshr_hits::total        52420                       # number of overall MSHR hits
system.cpu.dcache.demand_mshr_misses::.cpu.data       461526                       # number of demand (read+write) MSHR misses
system.cpu.dcache.demand_mshr_misses::total       461526                       # number of demand (read+write) MSHR misses
system.cpu.dcache.overall_mshr_misses::.cpu.data       469433                       # number of overall MSHR misses
system.cpu.dcache.overall_mshr_misses::total       469433                       # number of overall MSHR misses
system.cpu.dcache.demand_mshr_miss_latency::.cpu.data  25136775000                       # number of demand (read+write) MSHR miss cycles
system.cpu.dcache.demand_mshr_miss_latency::total  25136775000                       # number of demand (read+write) MSHR miss cycles
system.cpu.dcache.overall_mshr_miss_latency::.cpu.data  25905545999                       # number of overall MSHR miss cycles
system.cpu.dcache.overall_mshr_miss_latency::total  25905545999                       # number of overall MSHR miss cycles
system.cpu.dcache.demand_mshr_miss_rate::.cpu.data     0.008849                       # mshr miss rate for demand accesses
system.cpu.dcache.demand_mshr_miss_rate::total     0.008849                       # mshr miss rate for demand accesses
system.cpu.dcache.overall_mshr_miss_rate::.cpu.data     0.008999                       # mshr miss rate for overall accesses
system.cpu.dcache.overall_mshr_miss_rate::total     0.008999                       # mshr miss rate for overall accesses
system.cpu.dcache.demand_avg_mshr_miss_latency::.cpu.data 54464.483041                       # average overall mshr miss latency
system.cpu.dcache.demand_avg_mshr_miss_latency::total 54464.483041                       # average overall mshr miss latency
system.cpu.dcache.overall_avg_mshr_miss_latency::.cpu.data 55184.756928                       # average overall mshr miss latency
system.cpu.dcache.overall_avg_mshr_miss_latency::total 55184.756928                       # average overall mshr miss latency
system.cpu.dcache.replacements                 467389                       # number of replacements
system.cpu.dcache.ReadReq_hits::.cpu.data     40940686                       # number of ReadReq hits
system.cpu.dcache.ReadReq_hits::total        40940686                       # number of ReadReq hits
system.cpu.dcache.ReadReq_misses::.cpu.data       236030                       # number of ReadReq misses
system.cpu.dcache.ReadReq_misses::total        236030                       # number of ReadReq misses
system.cpu.dcache.ReadReq_miss_latency::.cpu.data   9512192000                       # number of ReadReq miss cycles
system.cpu.dcache.ReadReq_miss_latency::total   9512192000                       # number of ReadReq miss cycles
system.cpu.dcache.ReadReq_accesses::.cpu.data     41176716                       # number of ReadReq accesses(hits+misses)
system.cpu.dcache.ReadReq_accesses::total     41176716                       # number of ReadReq accesses(hits+misses)
system.cpu.dcache.ReadReq_miss_rate::.cpu.data     0.005732                       # miss rate for ReadReq accesses
system.cpu.dcache.ReadReq_miss_rate::total     0.005732                       # miss rate for ReadReq accesses
system.cpu.dcache.ReadReq_avg_miss_latency::.cpu.data 40300.775325                       # average ReadReq miss latency
system.cpu.dcache.ReadReq_avg_miss_latency::total 40300.775325                       # average ReadReq miss latency
system.cpu.dcache.ReadReq_mshr_hits::.cpu.data          639                       # number of ReadReq MSHR hits
system.cpu.dcache.ReadReq_mshr_hits::total          639                       # number of ReadReq MSHR hits
system.cpu.dcache.ReadReq_mshr_misses::.cpu.data       235391                       # number of ReadReq MSHR misses
system.cpu.dcache.ReadReq_mshr_misses::total       235391                       # number of ReadReq MSHR misses
system.cpu.dcache.ReadReq_mshr_miss_latency::.cpu.data   9007654000                       # number of ReadReq MSHR miss cycles
system.cpu.dcache.ReadReq_mshr_miss_latency::total   9007654000                       # number of ReadReq MSHR miss cycles
system.cpu.dcache.ReadReq_mshr_miss_rate::.cpu.data     0.005717                       # mshr miss rate for ReadReq accesses
system.cpu.dcache.ReadReq_mshr_miss_rate::total     0.005717                       # mshr miss rate for ReadReq accesses
system.cpu.dcache.ReadReq_avg_mshr_miss_latency::.cpu.data 38266.773156                       # average ReadReq mshr miss latency
system.cpu.dcache.ReadReq_avg_mshr_miss_latency::total 38266.773156                       # average ReadReq mshr miss latency
system.cpu.dcache.WriteReq_hits::.cpu.data     10700263                       # number of WriteReq hits
system.cpu.dcache.WriteReq_hits::total       10700263                       # number of WriteReq hits
system.cpu.dcache.WriteReq_misses::.cpu.data       277916                       # number of WriteReq misses
system.cpu.dcache.WriteReq_misses::total       277916                       # number of WriteReq misses
system.cpu.dcache.WriteReq_miss_latency::.cpu.data  18185689000                       # number of WriteReq miss cycles
system.cpu.dcache.WriteReq_miss_latency::total  18185689000                       # number of WriteReq miss cycles
system.cpu.dcache.WriteReq_accesses::.cpu.data     10978179                       # number of WriteReq accesses(hits+misses)
system.cpu.dcache.WriteReq_accesses::total     10978179                       # number of WriteReq accesses(hits+misses)
system.cpu.dcache.WriteReq_miss_rate::.cpu.data     0.025315                       # miss rate for WriteReq accesses
system.cpu.dcache.WriteReq_miss_rate::total     0.025315                       # miss rate for WriteReq accesses
system.cpu.dcache.WriteReq_avg_miss_latency::.cpu.data 65435.919486                       # average WriteReq miss latency
system.cpu.dcache.WriteReq_avg_miss_latency::total 65435.919486                       # average WriteReq miss latency
system.cpu.dcache.WriteReq_mshr_hits::.cpu.data        51781                       # number of WriteReq MSHR hits
system.cpu.dcache.WriteReq_mshr_hits::total        51781                       # number of WriteReq MSHR hits
system.cpu.dcache.WriteReq_mshr_misses::.cpu.data       226135                       # number of WriteReq MSHR misses
system.cpu.dcache.WriteReq_mshr_misses::total       226135                       # number of WriteReq MSHR misses
system.cpu.dcache.WriteReq_mshr_miss_latency::.cpu.data  16129121000                       # number of WriteReq MSHR miss cycles
system.cpu.dcache.WriteReq_mshr_miss_latency::total  16129121000                       # number of WriteReq MSHR miss cycles
system.cpu.dcache.WriteReq_mshr_miss_rate::.cpu.data     0.020599                       # mshr miss rate for WriteReq accesses
system.cpu.dcache.WriteReq_mshr_miss_rate::total     0.020599                       # mshr miss rate for WriteReq accesses
system.cpu.dcache.WriteReq_avg_mshr_miss_latency::.cpu.data 71325.186283                       # average WriteReq mshr miss latency
system.cpu.dcache.WriteReq_avg_mshr_miss_latency::total 71325.186283                       # average WriteReq mshr miss latency
system.cpu.dcache.SoftPFReq_hits::.cpu.data          507                       # number of SoftPFReq hits
system.cpu.dcache.SoftPFReq_hits::total           507                       # number of SoftPFReq hits
system.cpu.dcache.SoftPFReq_misses::.cpu.data         7912                       # number of SoftPFReq misses
system.cpu.dcache.SoftPFReq_misses::total         7912                       # number of SoftPFReq misses
system.cpu.dcache.SoftPFReq_accesses::.cpu.data         8419                       # number of SoftPFReq accesses(hits+misses)
system.cpu.dcache.SoftPFReq_accesses::total         8419                       # number of SoftPFReq accesses(hits+misses)
system.cpu.dcache.SoftPFReq_miss_rate::.cpu.data     0.939779                       # miss rate for SoftPFReq accesses
system.cpu.dcache.SoftPFReq_miss_rate::total     0.939779                       # miss rate for SoftPFReq accesses
system.cpu.dcache.SoftPFReq_mshr_misses::.cpu.data         7907                       # number of SoftPFReq MSHR misses
system.cpu.dcache.SoftPFReq_mshr_misses::total         7907                       # number of SoftPFReq MSHR misses
system.cpu.dcache.SoftPFReq_mshr_miss_latency::.cpu.data    768770999                       # number of SoftPFReq MSHR miss cycles
system.cpu.dcache.SoftPFReq_mshr_miss_latency::total    768770999                       # number of SoftPFReq MSHR miss cycles
system.cpu.dcache.SoftPFReq_mshr_miss_rate::.cpu.data     0.939185                       # mshr miss rate for SoftPFReq accesses
system.cpu.dcache.SoftPFReq_mshr_miss_rate::total     0.939185                       # mshr miss rate for SoftPFReq accesses
system.cpu.dcache.SoftPFReq_avg_mshr_miss_latency::.cpu.data 97226.634501                       # average SoftPFReq mshr miss latency
system.cpu.dcache.SoftPFReq_avg_mshr_miss_latency::total 97226.634501                       # average SoftPFReq mshr miss latency
system.cpu.dcache.LoadLockedReq_hits::.cpu.data           34                       # number of LoadLockedReq hits
system.cpu.dcache.LoadLockedReq_hits::total           34                       # number of LoadLockedReq hits
system.cpu.dcache.LoadLockedReq_misses::.cpu.data            4                       # number of LoadLockedReq misses
system.cpu.dcache.LoadLockedReq_misses::total            4                       # number of LoadLockedReq misses
system.cpu.dcache.LoadLockedReq_miss_latency::.cpu.data       311000                       # number of LoadLockedReq miss cycles
system.cpu.dcache.LoadLockedReq_miss_latency::total       311000                       # number of LoadLockedReq miss cycles
system.cpu.dcache.LoadLockedReq_accesses::.cpu.data           38                       # number of LoadLockedReq accesses(hits+misses)
system.cpu.dcache.LoadLockedReq_accesses::total           38                       # number of LoadLockedReq accesses(hits+misses)
system.cpu.dcache.LoadLockedReq_miss_rate::.cpu.data     0.105263                       # miss rate for LoadLockedReq accesses
system.cpu.dcache.LoadLockedReq_miss_rate::total     0.105263                       # miss rate for LoadLockedReq accesses
system.cpu.dcache.LoadLockedReq_avg_miss_latency::.cpu.data        77750                       # average LoadLockedReq miss latency
system.cpu.dcache.LoadLockedReq_avg_miss_latency::total        77750                       # average LoadLockedReq miss latency
system.cpu.dcache.LoadLockedReq_mshr_misses::.cpu.data            4                       # number of LoadLockedReq MSHR misses
system.cpu.dcache.LoadLockedReq_mshr_misses::total            4                       # number of LoadLockedReq MSHR misses
system.cpu.dcache.LoadLockedReq_mshr_miss_latency::.cpu.data       303000                       # number of LoadLockedReq MSHR miss cycles
system.cpu.dcache.LoadLockedReq_mshr_miss_latency::total       303000                       # number of LoadLockedReq MSHR miss cycles
system.cpu.dcache.LoadLockedReq_mshr_miss_rate::.cpu.data     0.105263                       # mshr miss rate for LoadLockedReq accesses
system.cpu.dcache.LoadLockedReq_mshr_miss_rate::total     0.105263                       # mshr miss rate for LoadLockedReq accesses
system.cpu.dcache.LoadLockedReq_avg_mshr_miss_latency::.cpu.data        75750                       # average LoadLockedReq mshr miss latency
system.cpu.dcache.LoadLockedReq_avg_mshr_miss_latency::total        75750                       # average LoadLockedReq mshr miss latency
system.cpu.dcache.StoreCondReq_hits::.cpu.data           38                       # number of StoreCondReq hits
system.cpu.dcache.StoreCondReq_hits::total           38                       # number of StoreCondReq hits
system.cpu.dcache.StoreCondReq_accesses::.cpu.data           38                       # number of StoreCondReq accesses(hits+misses)
system.cpu.dcache.StoreCondReq_accesses::total           38                       # number of StoreCondReq accesses(hits+misses)
system.cpu.dcache.tags.pwrStateResidencyTicks::UNDEFINED 155438934000                       # Cumulative time (in ticks) in various power states
system.cpu.dcache.tags.tagsinuse          2022.495271                       # Cycle average of tags in use
system.cpu.dcache.tags.total_refs            52110965                       # Total number of references to valid blocks.
system.cpu.dcache.tags.sampled_refs            469437                       # Sample count of references to valid blocks.
system.cpu.dcache.tags.avg_refs            111.007366                       # Average number of references to valid blocks.
system.cpu.dcache.tags.warmup_cycle            223000                       # Cycle when the warmup percentage was hit.
system.cpu.dcache.tags.occ_blocks::.cpu.data  2022.495271                       # Average occupied blocks per requestor
system.cpu.dcache.tags.occ_percent::.cpu.data     0.987547                       # Average percentage of cache occupancy
system.cpu.dcache.tags.occ_percent::total     0.987547                       # Average percentage of cache occupancy
system.cpu.dcache.tags.occ_task_id_blocks::1024         2048                       # Occupied blocks per task id
system.cpu.dcache.tags.age_task_id_blocks_1024::0           81                       # Occupied blocks per task id
system.cpu.dcache.tags.age_task_id_blocks_1024::1          521                       # Occupied blocks per task id
system.cpu.dcache.tags.age_task_id_blocks_1024::2         1395                       # Occupied blocks per task id
system.cpu.dcache.tags.age_task_id_blocks_1024::3           45                       # Occupied blocks per task id
system.cpu.dcache.tags.age_task_id_blocks_1024::4            6                       # Occupied blocks per task id
system.cpu.dcache.tags.occ_task_id_percent::1024            1                       # Percentage of cache occupancy per task id
system.cpu.dcache.tags.tag_accesses         835083677                       # Number of tag accesses
system.cpu.dcache.tags.data_accesses        835083677                       # Number of data accesses
system.cpu.itb.walker.pwrStateResidencyTicks::UNDEFINED 155438934000                       # Cumulative time (in ticks) in various power states
system.cpu.itb.stage2_mmu.stage2_tlb.walker.pwrStateResidencyTicks::UNDEFINED 155438934000                       # Cumulative time (in ticks) in various power states

---------- End Simulation Statistics   ----------
