
---------- Begin Simulation Statistics ----------
final_tick                               117918168000                       # Number of ticks from beginning of simulation (restored from checkpoints and never reset)
host_inst_rate                                 356765                       # Simulator instruction rate (inst/s)
host_mem_usage                                 712996                       # Number of bytes of host memory used
host_op_rate                                   360769                       # Simulator op (including micro ops) rate (op/s)
host_seconds                                   280.30                       # Real time elapsed on the host
host_tick_rate                              420690463                       # Simulator tick rate (ticks/s)
sim_freq                                 1000000000000                       # Frequency of simulated ticks
sim_insts                                   100000000                       # Number of instructions simulated
sim_ops                                     101122354                       # Number of ops (including micro ops) simulated
sim_seconds                                  0.117918                       # Number of seconds simulated
sim_ticks                                117918168000                       # Number of ticks simulated
system.cpu.branchPred.BTBCorrect                    0                       # Number of correct BTB predictions (this stat may not work properly.
system.cpu.branchPred.BTBHitPct             84.805230                       # BTB Hit Percentage
system.cpu.branchPred.BTBHits                 4083594                       # Number of BTB hits
system.cpu.branchPred.BTBLookups              4815262                       # Number of BTB lookups
system.cpu.branchPred.RASInCorrect                 20                       # Number of incorrect RAS predictions.
system.cpu.branchPred.condIncorrect            345767                       # Number of conditional branches incorrect
system.cpu.branchPred.condPredicted           5100447                       # Number of conditional branches predicted
system.cpu.branchPred.indirectHits             102843                       # Number of indirect target hits.
system.cpu.branchPred.indirectLookups          675329                       # Number of indirect predictor lookups.
system.cpu.branchPred.indirectMisses           572486                       # Number of indirect misses.
system.cpu.branchPred.lookups                 6507970                       # Number of BP lookups
system.cpu.branchPred.usedRAS                  312549                       # Number of times the RAS was used to get a target.
system.cpu.branchPredindirectMispredicted        35003                       # Number of mispredicted indirect branches.
system.cpu.committedInsts                   100000000                       # Number of instructions committed
system.cpu.committedOps                     101122354                       # Number of ops (including micro ops) committed
system.cpu.cpi                               1.179182                       # CPI: cycles per instruction
system.cpu.discardedOps                        950471                       # Number of ops (including micro ops) which were discarded before commit
system.cpu.dtb.accesses                             0                       # DTB accesses
system.cpu.dtb.align_faults                         0                       # Number of TLB faults due to alignment restrictions
system.cpu.dtb.domain_faults                        0                       # Number of TLB faults due to domain restrictions
system.cpu.dtb.flush_entries                        0                       # Number of entries that have been flushed from TLB
system.cpu.dtb.flush_tlb                            0                       # Number of times complete TLB was flushed
system.cpu.dtb.flush_tlb_asid                       0                       # Number of times TLB was flushed by ASID
system.cpu.dtb.flush_tlb_mva                        0                       # Number of times TLB was flushed by MVA
system.cpu.dtb.flush_tlb_mva_asid                   0                       # Number of times TLB was flushed by MVA & ASID
system.cpu.dtb.hits                                 0                       # DTB hits
system.cpu.dtb.inst_accesses                        0                       # ITB inst accesses
system.cpu.dtb.inst_hits                            0                       # ITB inst hits
system.cpu.dtb.inst_misses                          0                       # ITB inst misses
system.cpu.dtb.misses                               0                       # DTB misses
system.cpu.dtb.perms_faults                         0                       # Number of TLB faults due to permissions restrictions
system.cpu.dtb.prefetch_faults                      0                       # Number of TLB faults due to prefetch
system.cpu.dtb.read_accesses                        0                       # DTB read accesses
system.cpu.dtb.read_hits                            0                       # DTB read hits
system.cpu.dtb.read_misses                          0                       # DTB read misses
system.cpu.dtb.stage2_mmu.stage2_tlb.accesses            0                       # DTB accesses
system.cpu.dtb.stage2_mmu.stage2_tlb.align_faults            0                       # Number of TLB faults due to alignment restrictions
system.cpu.dtb.stage2_mmu.stage2_tlb.domain_faults            0                       # Number of TLB faults due to domain restrictions
system.cpu.dtb.stage2_mmu.stage2_tlb.flush_entries            0                       # Number of entries that have been flushed from TLB
system.cpu.dtb.stage2_mmu.stage2_tlb.flush_tlb            0                       # Number of times complete TLB was flushed
system.cpu.dtb.stage2_mmu.stage2_tlb.flush_tlb_asid            0                       # Number of times TLB was flushed by ASID
system.cpu.dtb.stage2_mmu.stage2_tlb.flush_tlb_mva            0                       # Number of times TLB was flushed by MVA
system.cpu.dtb.stage2_mmu.stage2_tlb.flush_tlb_mva_asid            0                       # Number of times TLB was flushed by MVA & ASID
system.cpu.dtb.stage2_mmu.stage2_tlb.hits            0                       # DTB hits
system.cpu.dtb.stage2_mmu.stage2_tlb.inst_accesses            0                       # ITB inst accesses
system.cpu.dtb.stage2_mmu.stage2_tlb.inst_hits            0                       # ITB inst hits
system.cpu.dtb.stage2_mmu.stage2_tlb.inst_misses            0                       # ITB inst misses
system.cpu.dtb.stage2_mmu.stage2_tlb.misses            0                       # DTB misses
system.cpu.dtb.stage2_mmu.stage2_tlb.perms_faults            0                       # Number of TLB faults due to permissions restrictions
system.cpu.dtb.stage2_mmu.stage2_tlb.prefetch_faults            0                       # Number of TLB faults due to prefetch
system.cpu.dtb.stage2_mmu.stage2_tlb.read_accesses            0                       # DTB read accesses
system.cpu.dtb.stage2_mmu.stage2_tlb.read_hits            0                       # DTB read hits
system.cpu.dtb.stage2_mmu.stage2_tlb.read_misses            0                       # DTB read misses
system.cpu.dtb.stage2_mmu.stage2_tlb.walker.walkRequestOrigin_Requested::Data            0                       # Table walker requests started/completed, data/inst
system.cpu.dtb.stage2_mmu.stage2_tlb.walker.walkRequestOrigin_Requested::Inst            0                       # Table walker requests started/completed, data/inst
system.cpu.dtb.stage2_mmu.stage2_tlb.walker.walkRequestOrigin_Requested::total            0                       # Table walker requests started/completed, data/inst
system.cpu.dtb.stage2_mmu.stage2_tlb.walker.walkRequestOrigin_Completed::Data            0                       # Table walker requests started/completed, data/inst
system.cpu.dtb.stage2_mmu.stage2_tlb.walker.walkRequestOrigin_Completed::Inst            0                       # Table walker requests started/completed, data/inst
system.cpu.dtb.stage2_mmu.stage2_tlb.walker.walkRequestOrigin_Completed::total            0                       # Table walker requests started/completed, data/inst
system.cpu.dtb.stage2_mmu.stage2_tlb.walker.walkRequestOrigin::total            0                       # Table walker requests started/completed, data/inst
system.cpu.dtb.stage2_mmu.stage2_tlb.walker.walks            0                       # Table walker walks requested
system.cpu.dtb.stage2_mmu.stage2_tlb.write_accesses            0                       # DTB write accesses
system.cpu.dtb.stage2_mmu.stage2_tlb.write_hits            0                       # DTB write hits
system.cpu.dtb.stage2_mmu.stage2_tlb.write_misses            0                       # DTB write misses
system.cpu.dtb.walker.walkRequestOrigin_Requested::Data            0                       # Table walker requests started/completed, data/inst
system.cpu.dtb.walker.walkRequestOrigin_Requested::Inst            0                       # Table walker requests started/completed, data/inst
system.cpu.dtb.walker.walkRequestOrigin_Requested::total            0                       # Table walker requests started/completed, data/inst
system.cpu.dtb.walker.walkRequestOrigin_Completed::Data            0                       # Table walker requests started/completed, data/inst
system.cpu.dtb.walker.walkRequestOrigin_Completed::Inst            0                       # Table walker requests started/completed, data/inst
system.cpu.dtb.walker.walkRequestOrigin_Completed::total            0                       # Table walker requests started/completed, data/inst
system.cpu.dtb.walker.walkRequestOrigin::total            0                       # Table walker requests started/completed, data/inst
system.cpu.dtb.walker.walks                         0                       # Table walker walks requested
system.cpu.dtb.write_accesses                       0                       # DTB write accesses
system.cpu.dtb.write_hits                           0                       # DTB write hits
system.cpu.dtb.write_misses                         0                       # DTB write misses
system.cpu.fetch2.amo_instructions                  0                       # Number of memory atomic instructions successfully decoded
system.cpu.fetch2.fp_instructions                   0                       # Number of floating point instructions successfully decoded
system.cpu.fetch2.int_instructions           48882469                       # Number of integer instructions successfully decoded
system.cpu.fetch2.load_instructions          40550211                       # Number of memory load instructions successfully decoded
system.cpu.fetch2.store_instructions          6262487                       # Number of memory store instructions successfully decoded
system.cpu.fetch2.vec_instructions                  0                       # Number of SIMD instructions successfully decoded
system.cpu.idleCycles                         2266913                       # Total number of cycles that the object has spent stopped
system.cpu.ipc                               0.848046                       # IPC: instructions per cycle
system.cpu.itb.accesses                             0                       # DTB accesses
system.cpu.itb.align_faults                         0                       # Number of TLB faults due to alignment restrictions
system.cpu.itb.domain_faults                        0                       # Number of TLB faults due to domain restrictions
system.cpu.itb.flush_entries                        0                       # Number of entries that have been flushed from TLB
system.cpu.itb.flush_tlb                            0                       # Number of times complete TLB was flushed
system.cpu.itb.flush_tlb_asid                       0                       # Number of times TLB was flushed by ASID
system.cpu.itb.flush_tlb_mva                        0                       # Number of times TLB was flushed by MVA
system.cpu.itb.flush_tlb_mva_asid                   0                       # Number of times TLB was flushed by MVA & ASID
system.cpu.itb.hits                                 0                       # DTB hits
system.cpu.itb.inst_accesses                        0                       # ITB inst accesses
system.cpu.itb.inst_hits                            0                       # ITB inst hits
system.cpu.itb.inst_misses                          0                       # ITB inst misses
system.cpu.itb.misses                               0                       # DTB misses
system.cpu.itb.perms_faults                         0                       # Number of TLB faults due to permissions restrictions
system.cpu.itb.prefetch_faults                      0                       # Number of TLB faults due to prefetch
system.cpu.itb.read_accesses                        0                       # DTB read accesses
system.cpu.itb.read_hits                            0                       # DTB read hits
system.cpu.itb.read_misses                          0                       # DTB read misses
system.cpu.itb.stage2_mmu.stage2_tlb.accesses            0                       # DTB accesses
system.cpu.itb.stage2_mmu.stage2_tlb.align_faults            0                       # Number of TLB faults due to alignment restrictions
system.cpu.itb.stage2_mmu.stage2_tlb.domain_faults            0                       # Number of TLB faults due to domain restrictions
system.cpu.itb.stage2_mmu.stage2_tlb.flush_entries            0                       # Number of entries that have been flushed from TLB
system.cpu.itb.stage2_mmu.stage2_tlb.flush_tlb            0                       # Number of times complete TLB was flushed
system.cpu.itb.stage2_mmu.stage2_tlb.flush_tlb_asid            0                       # Number of times TLB was flushed by ASID
system.cpu.itb.stage2_mmu.stage2_tlb.flush_tlb_mva            0                       # Number of times TLB was flushed by MVA
system.cpu.itb.stage2_mmu.stage2_tlb.flush_tlb_mva_asid            0                       # Number of times TLB was flushed by MVA & ASID
system.cpu.itb.stage2_mmu.stage2_tlb.hits            0                       # DTB hits
system.cpu.itb.stage2_mmu.stage2_tlb.inst_accesses            0                       # ITB inst accesses
system.cpu.itb.stage2_mmu.stage2_tlb.inst_hits            0                       # ITB inst hits
system.cpu.itb.stage2_mmu.stage2_tlb.inst_misses            0                       # ITB inst misses
system.cpu.itb.stage2_mmu.stage2_tlb.misses            0                       # DTB misses
system.cpu.itb.stage2_mmu.stage2_tlb.perms_faults            0                       # Number of TLB faults due to permissions restrictions
system.cpu.itb.stage2_mmu.stage2_tlb.prefetch_faults            0                       # Number of TLB faults due to prefetch
system.cpu.itb.stage2_mmu.stage2_tlb.read_accesses            0                       # DTB read accesses
system.cpu.itb.stage2_mmu.stage2_tlb.read_hits            0                       # DTB read hits
system.cpu.itb.stage2_mmu.stage2_tlb.read_misses            0                       # DTB read misses
system.cpu.itb.stage2_mmu.stage2_tlb.walker.walkRequestOrigin_Requested::Data            0                       # Table walker requests started/completed, data/inst
system.cpu.itb.stage2_mmu.stage2_tlb.walker.walkRequestOrigin_Requested::Inst            0                       # Table walker requests started/completed, data/inst
system.cpu.itb.stage2_mmu.stage2_tlb.walker.walkRequestOrigin_Requested::total            0                       # Table walker requests started/completed, data/inst
system.cpu.itb.stage2_mmu.stage2_tlb.walker.walkRequestOrigin_Completed::Data            0                       # Table walker requests started/completed, data/inst
system.cpu.itb.stage2_mmu.stage2_tlb.walker.walkRequestOrigin_Completed::Inst            0                       # Table walker requests started/completed, data/inst
system.cpu.itb.stage2_mmu.stage2_tlb.walker.walkRequestOrigin_Completed::total            0                       # Table walker requests started/completed, data/inst
system.cpu.itb.stage2_mmu.stage2_tlb.walker.walkRequestOrigin::total            0                       # Table walker requests started/completed, data/inst
system.cpu.itb.stage2_mmu.stage2_tlb.walker.walks            0                       # Table walker walks requested
system.cpu.itb.stage2_mmu.stage2_tlb.write_accesses            0                       # DTB write accesses
system.cpu.itb.stage2_mmu.stage2_tlb.write_hits            0                       # DTB write hits
system.cpu.itb.stage2_mmu.stage2_tlb.write_misses            0                       # DTB write misses
system.cpu.itb.walker.walkRequestOrigin_Requested::Data            0                       # Table walker requests started/completed, data/inst
system.cpu.itb.walker.walkRequestOrigin_Requested::Inst            0                       # Table walker requests started/completed, data/inst
system.cpu.itb.walker.walkRequestOrigin_Requested::total            0                       # Table walker requests started/completed, data/inst
system.cpu.itb.walker.walkRequestOrigin_Completed::Data            0                       # Table walker requests started/completed, data/inst
system.cpu.itb.walker.walkRequestOrigin_Completed::Inst            0                       # Table walker requests started/completed, data/inst
system.cpu.itb.walker.walkRequestOrigin_Completed::total            0                       # Table walker requests started/completed, data/inst
system.cpu.itb.walker.walkRequestOrigin::total            0                       # Table walker requests started/completed, data/inst
system.cpu.itb.walker.walks                         0                       # Table walker walks requested
system.cpu.itb.write_accesses                       0                       # DTB write accesses
system.cpu.itb.write_hits                           0                       # DTB write hits
system.cpu.itb.write_misses                         0                       # DTB write misses
system.cpu.numCycles                        117918168                       # number of cpu cycles simulated
system.cpu.numFetchSuspends                         0                       # Number of times Execute suspended instruction fetching
system.cpu.numWorkItemsCompleted                    0                       # number of work items this cpu completed
system.cpu.numWorkItemsStarted                      0                       # number of work items this cpu started
system.cpu.op_class_0::No_OpClass                   0      0.00%      0.00% # Class of committed instruction
system.cpu.op_class_0::IntAlu                55111288     54.50%     54.50% # Class of committed instruction
system.cpu.op_class_0::IntMult                 167845      0.17%     54.67% # Class of committed instruction
system.cpu.op_class_0::IntDiv                       0      0.00%     54.67% # Class of committed instruction
system.cpu.op_class_0::FloatAdd                     0      0.00%     54.67% # Class of committed instruction
system.cpu.op_class_0::FloatCmp                     0      0.00%     54.67% # Class of committed instruction
system.cpu.op_class_0::FloatCvt                     0      0.00%     54.67% # Class of committed instruction
system.cpu.op_class_0::FloatMult                    0      0.00%     54.67% # Class of committed instruction
system.cpu.op_class_0::FloatMultAcc                 0      0.00%     54.67% # Class of committed instruction
system.cpu.op_class_0::FloatDiv                     0      0.00%     54.67% # Class of committed instruction
system.cpu.op_class_0::FloatMisc                    0      0.00%     54.67% # Class of committed instruction
system.cpu.op_class_0::FloatSqrt                    0      0.00%     54.67% # Class of committed instruction
system.cpu.op_class_0::SimdAdd                    380      0.00%     54.67% # Class of committed instruction
system.cpu.op_class_0::SimdAddAcc                   0      0.00%     54.67% # Class of committed instruction
system.cpu.op_class_0::SimdAlu                    470      0.00%     54.67% # Class of committed instruction
system.cpu.op_class_0::SimdCmp                    382      0.00%     54.67% # Class of committed instruction
system.cpu.op_class_0::SimdCvt                      0      0.00%     54.67% # Class of committed instruction
system.cpu.op_class_0::SimdMisc                    53      0.00%     54.67% # Class of committed instruction
system.cpu.op_class_0::SimdMult                     0      0.00%     54.67% # Class of committed instruction
system.cpu.op_class_0::SimdMultAcc                  0      0.00%     54.67% # Class of committed instruction
system.cpu.op_class_0::SimdShift                    0      0.00%     54.67% # Class of committed instruction
system.cpu.op_class_0::SimdShiftAcc                 0      0.00%     54.67% # Class of committed instruction
system.cpu.op_class_0::SimdDiv                      0      0.00%     54.67% # Class of committed instruction
system.cpu.op_class_0::SimdSqrt                     0      0.00%     54.67% # Class of committed instruction
system.cpu.op_class_0::SimdFloatAdd            282752      0.28%     54.95% # Class of committed instruction
system.cpu.op_class_0::SimdFloatAlu                 0      0.00%     54.95% # Class of committed instruction
system.cpu.op_class_0::SimdFloatCmp            266991      0.26%     55.21% # Class of committed instruction
system.cpu.op_class_0::SimdFloatCvt            163440      0.16%     55.37% # Class of committed instruction
system.cpu.op_class_0::SimdFloatDiv             54308      0.05%     55.43% # Class of committed instruction
system.cpu.op_class_0::SimdFloatMisc           505318      0.50%     55.93% # Class of committed instruction
system.cpu.op_class_0::SimdFloatMult            36718      0.04%     55.96% # Class of committed instruction
system.cpu.op_class_0::SimdFloatMultAcc         10949      0.01%     55.97% # Class of committed instruction
system.cpu.op_class_0::SimdFloatSqrt                0      0.00%     55.97% # Class of committed instruction
system.cpu.op_class_0::SimdReduceAdd                0      0.00%     55.97% # Class of committed instruction
system.cpu.op_class_0::SimdReduceAlu                0      0.00%     55.97% # Class of committed instruction
system.cpu.op_class_0::SimdReduceCmp                0      0.00%     55.97% # Class of committed instruction
system.cpu.op_class_0::SimdFloatReduceAdd            0      0.00%     55.97% # Class of committed instruction
system.cpu.op_class_0::SimdFloatReduceCmp            0      0.00%     55.97% # Class of committed instruction
system.cpu.op_class_0::SimdAes                      0      0.00%     55.97% # Class of committed instruction
system.cpu.op_class_0::SimdAesMix                   0      0.00%     55.97% # Class of committed instruction
system.cpu.op_class_0::SimdSha1Hash                 0      0.00%     55.97% # Class of committed instruction
system.cpu.op_class_0::SimdSha1Hash2                0      0.00%     55.97% # Class of committed instruction
system.cpu.op_class_0::SimdSha256Hash               0      0.00%     55.97% # Class of committed instruction
system.cpu.op_class_0::SimdSha256Hash2              0      0.00%     55.97% # Class of committed instruction
system.cpu.op_class_0::SimdShaSigma2                0      0.00%     55.97% # Class of committed instruction
system.cpu.op_class_0::SimdShaSigma3                0      0.00%     55.97% # Class of committed instruction
system.cpu.op_class_0::SimdPredAlu                  0      0.00%     55.97% # Class of committed instruction
system.cpu.op_class_0::MemRead               38138372     37.72%     93.69% # Class of committed instruction
system.cpu.op_class_0::MemWrite               6383088      6.31%    100.00% # Class of committed instruction
system.cpu.op_class_0::FloatMemRead                 0      0.00%    100.00% # Class of committed instruction
system.cpu.op_class_0::FloatMemWrite                0      0.00%    100.00% # Class of committed instruction
system.cpu.op_class_0::IprAccess                    0      0.00%    100.00% # Class of committed instruction
system.cpu.op_class_0::InstPrefetch                 0      0.00%    100.00% # Class of committed instruction
system.cpu.op_class_0::total                101122354                       # Class of committed instruction
system.cpu.tickCycles                       115651255                       # Number of cycles that the object actually ticked
system.cpu.workload.numSyscalls                    33                       # Number of system calls
system.membus.snoop_filter.hit_multi_requests            0                       # Number of requests hitting in the snoop filter with multiple (>1) holders of the requested data.
system.membus.snoop_filter.hit_multi_snoops            0                       # Number of snoops hitting in the snoop filter with multiple (>1) holders of the requested data.
system.membus.snoop_filter.hit_single_requests            3                       # Number of requests hitting in the snoop filter with a single holder of the requested data.
system.membus.snoop_filter.hit_single_snoops            0                       # Number of snoops hitting in the snoop filter with a single holder of the requested data.
system.membus.snoop_filter.tot_requests          3099                       # Total number of requests made to the snoop filter.
system.membus.snoop_filter.tot_snoops               0                       # Total number of snoops made to the snoop filter.
system.tol2bus.snoop_filter.hit_multi_requests          272                       # Number of requests hitting in the snoop filter with multiple (>1) holders of the requested data.
system.tol2bus.snoop_filter.hit_multi_snoops            0                       # Number of snoops hitting in the snoop filter with multiple (>1) holders of the requested data.
system.tol2bus.snoop_filter.hit_single_requests         9999                       # Number of requests hitting in the snoop filter with a single holder of the requested data.
system.tol2bus.snoop_filter.hit_single_snoops           18                       # Number of snoops hitting in the snoop filter with a single holder of the requested data.
system.tol2bus.snoop_filter.tot_requests        21806                       # Total number of requests made to the snoop filter.
system.tol2bus.snoop_filter.tot_snoops             18                       # Total number of snoops made to the snoop filter.
system.membus.pwrStateResidencyTicks::UNDEFINED 117918168000                       # Cumulative time (in ticks) in various power states
system.membus.trans_dist::ReadResp               1244                       # Transaction distribution
system.membus.trans_dist::CleanEvict                3                       # Transaction distribution
system.membus.trans_dist::ReadExReq              1852                       # Transaction distribution
system.membus.trans_dist::ReadExResp             1852                       # Transaction distribution
system.membus.trans_dist::ReadSharedReq          1244                       # Transaction distribution
system.membus.pkt_count_system.l2.mem_side::system.mem_ctrls.port         6195                       # Packet count per connected master and slave (bytes)
system.membus.pkt_count::total                   6195                       # Packet count per connected master and slave (bytes)
system.membus.pkt_size_system.l2.mem_side::system.mem_ctrls.port       396288                       # Cumulative packet size per connected master and slave (bytes)
system.membus.pkt_size::total                  396288                       # Cumulative packet size per connected master and slave (bytes)
system.membus.snoops                                0                       # Total snoops (count)
system.membus.snoopTraffic                          0                       # Total snoop traffic (bytes)
system.membus.snoop_fanout::samples              3096                       # Request fanout histogram
system.membus.snoop_fanout::mean                    0                       # Request fanout histogram
system.membus.snoop_fanout::stdev                   0                       # Request fanout histogram
system.membus.snoop_fanout::underflows              0      0.00%      0.00% # Request fanout histogram
system.membus.snoop_fanout::0                    3096    100.00%    100.00% # Request fanout histogram
system.membus.snoop_fanout::1                       0      0.00%    100.00% # Request fanout histogram
system.membus.snoop_fanout::overflows               0      0.00%    100.00% # Request fanout histogram
system.membus.snoop_fanout::min_value               0                       # Request fanout histogram
system.membus.snoop_fanout::max_value               0                       # Request fanout histogram
system.membus.snoop_fanout::total                3096                       # Request fanout histogram
system.membus.respLayer1.occupancy           29017500                       # Layer occupancy (ticks)
system.membus.respLayer1.utilization              0.0                       # Layer utilization (%)
system.membus.reqLayer0.occupancy             3099000                       # Layer occupancy (ticks)
system.membus.reqLayer0.utilization               0.0                       # Layer utilization (%)
system.tol2bus.pwrStateResidencyTicks::UNDEFINED 117918168000                       # Cumulative time (in ticks) in various power states
system.tol2bus.trans_dist::ReadResp              3296                       # Transaction distribution
system.tol2bus.trans_dist::WritebackDirty         9206                       # Transaction distribution
system.tol2bus.trans_dist::WritebackClean           27                       # Transaction distribution
system.tol2bus.trans_dist::CleanEvict             771                       # Transaction distribution
system.tol2bus.trans_dist::ReadExReq             8527                       # Transaction distribution
system.tol2bus.trans_dist::ReadExResp            8527                       # Transaction distribution
system.tol2bus.trans_dist::ReadCleanReq           843                       # Transaction distribution
system.tol2bus.trans_dist::ReadSharedReq         2453                       # Transaction distribution
system.tol2bus.pkt_count_system.cpu.icache.mem_side::system.l2.cpu_side         1713                       # Packet count per connected master and slave (bytes)
system.tol2bus.pkt_count_system.cpu.dcache.mem_side::system.l2.cpu_side        31916                       # Packet count per connected master and slave (bytes)
system.tol2bus.pkt_count::total                 33629                       # Packet count per connected master and slave (bytes)
system.tol2bus.pkt_size_system.cpu.icache.mem_side::system.l2.cpu_side       111360                       # Cumulative packet size per connected master and slave (bytes)
system.tol2bus.pkt_size_system.cpu.dcache.mem_side::system.l2.cpu_side      2583808                       # Cumulative packet size per connected master and slave (bytes)
system.tol2bus.pkt_size::total                2695168                       # Cumulative packet size per connected master and slave (bytes)
system.tol2bus.snoops                              21                       # Total snoops (count)
system.tol2bus.snoopTraffic                         0                       # Total snoop traffic (bytes)
system.tol2bus.snoop_fanout::samples            11844                       # Request fanout histogram
system.tol2bus.snoop_fanout::mean            0.025836                       # Request fanout histogram
system.tol2bus.snoop_fanout::stdev           0.158652                       # Request fanout histogram
system.tol2bus.snoop_fanout::underflows             0      0.00%      0.00% # Request fanout histogram
system.tol2bus.snoop_fanout::0                  11538     97.42%     97.42% # Request fanout histogram
system.tol2bus.snoop_fanout::1                    306      2.58%    100.00% # Request fanout histogram
system.tol2bus.snoop_fanout::2                      0      0.00%    100.00% # Request fanout histogram
system.tol2bus.snoop_fanout::overflows              0      0.00%    100.00% # Request fanout histogram
system.tol2bus.snoop_fanout::min_value              0                       # Request fanout histogram
system.tol2bus.snoop_fanout::max_value              1                       # Request fanout histogram
system.tol2bus.snoop_fanout::total              11844                       # Request fanout histogram
system.tol2bus.reqLayer0.occupancy           58738000                       # Layer occupancy (ticks)
system.tol2bus.reqLayer0.utilization              0.0                       # Layer utilization (%)
system.tol2bus.respLayer1.occupancy          54909990                       # Layer occupancy (ticks)
system.tol2bus.respLayer1.utilization             0.0                       # Layer utilization (%)
system.tol2bus.respLayer0.occupancy           4217997                       # Layer occupancy (ticks)
system.tol2bus.respLayer0.utilization             0.0                       # Layer utilization (%)
system.voltage_domain.voltage                       1                       # Voltage in Volts
system.clk_domain.clock                          1000                       # Clock period in ticks
system.l2.pwrStateResidencyTicks::UNDEFINED 117918168000                       # Cumulative time (in ticks) in various power states
system.l2.demand_hits::.cpu.inst                   41                       # number of demand (read+write) hits
system.l2.demand_hits::.cpu.data                 8673                       # number of demand (read+write) hits
system.l2.demand_hits::total                     8714                       # number of demand (read+write) hits
system.l2.overall_hits::.cpu.inst                  41                       # number of overall hits
system.l2.overall_hits::.cpu.data                8673                       # number of overall hits
system.l2.overall_hits::total                    8714                       # number of overall hits
system.l2.demand_misses::.cpu.inst                802                       # number of demand (read+write) misses
system.l2.demand_misses::.cpu.data               2307                       # number of demand (read+write) misses
system.l2.demand_misses::total                   3109                       # number of demand (read+write) misses
system.l2.overall_misses::.cpu.inst               802                       # number of overall misses
system.l2.overall_misses::.cpu.data              2307                       # number of overall misses
system.l2.overall_misses::total                  3109                       # number of overall misses
system.l2.demand_miss_latency::.cpu.inst     84195000                       # number of demand (read+write) miss cycles
system.l2.demand_miss_latency::.cpu.data    248177000                       # number of demand (read+write) miss cycles
system.l2.demand_miss_latency::total        332372000                       # number of demand (read+write) miss cycles
system.l2.overall_miss_latency::.cpu.inst     84195000                       # number of overall miss cycles
system.l2.overall_miss_latency::.cpu.data    248177000                       # number of overall miss cycles
system.l2.overall_miss_latency::total       332372000                       # number of overall miss cycles
system.l2.demand_accesses::.cpu.inst              843                       # number of demand (read+write) accesses
system.l2.demand_accesses::.cpu.data            10980                       # number of demand (read+write) accesses
system.l2.demand_accesses::total                11823                       # number of demand (read+write) accesses
system.l2.overall_accesses::.cpu.inst             843                       # number of overall (read+write) accesses
system.l2.overall_accesses::.cpu.data           10980                       # number of overall (read+write) accesses
system.l2.overall_accesses::total               11823                       # number of overall (read+write) accesses
system.l2.demand_miss_rate::.cpu.inst        0.951364                       # miss rate for demand accesses
system.l2.demand_miss_rate::.cpu.data        0.210109                       # miss rate for demand accesses
system.l2.demand_miss_rate::total            0.262962                       # miss rate for demand accesses
system.l2.overall_miss_rate::.cpu.inst       0.951364                       # miss rate for overall accesses
system.l2.overall_miss_rate::.cpu.data       0.210109                       # miss rate for overall accesses
system.l2.overall_miss_rate::total           0.262962                       # miss rate for overall accesses
system.l2.demand_avg_miss_latency::.cpu.inst 104981.296758                       # average overall miss latency
system.l2.demand_avg_miss_latency::.cpu.data 107575.639358                       # average overall miss latency
system.l2.demand_avg_miss_latency::total 106906.400772                       # average overall miss latency
system.l2.overall_avg_miss_latency::.cpu.inst 104981.296758                       # average overall miss latency
system.l2.overall_avg_miss_latency::.cpu.data 107575.639358                       # average overall miss latency
system.l2.overall_avg_miss_latency::total 106906.400772                       # average overall miss latency
system.l2.blocked_cycles::no_mshrs                  0                       # number of cycles access was blocked
system.l2.blocked_cycles::no_targets                0                       # number of cycles access was blocked
system.l2.blocked::no_mshrs                         0                       # number of cycles access was blocked
system.l2.blocked::no_targets                       0                       # number of cycles access was blocked
system.l2.avg_blocked_cycles::no_mshrs            nan                       # average number of cycles each access was blocked
system.l2.avg_blocked_cycles::no_targets          nan                       # average number of cycles each access was blocked
system.l2.demand_mshr_hits::.cpu.inst               3                       # number of demand (read+write) MSHR hits
system.l2.demand_mshr_hits::.cpu.data              10                       # number of demand (read+write) MSHR hits
system.l2.demand_mshr_hits::total                  13                       # number of demand (read+write) MSHR hits
system.l2.overall_mshr_hits::.cpu.inst              3                       # number of overall MSHR hits
system.l2.overall_mshr_hits::.cpu.data             10                       # number of overall MSHR hits
system.l2.overall_mshr_hits::total                 13                       # number of overall MSHR hits
system.l2.demand_mshr_misses::.cpu.inst           799                       # number of demand (read+write) MSHR misses
system.l2.demand_mshr_misses::.cpu.data          2297                       # number of demand (read+write) MSHR misses
system.l2.demand_mshr_misses::total              3096                       # number of demand (read+write) MSHR misses
system.l2.overall_mshr_misses::.cpu.inst          799                       # number of overall MSHR misses
system.l2.overall_mshr_misses::.cpu.data         2297                       # number of overall MSHR misses
system.l2.overall_mshr_misses::total             3096                       # number of overall MSHR misses
system.l2.demand_mshr_miss_latency::.cpu.inst     67946000                       # number of demand (read+write) MSHR miss cycles
system.l2.demand_mshr_miss_latency::.cpu.data    201381000                       # number of demand (read+write) MSHR miss cycles
system.l2.demand_mshr_miss_latency::total    269327000                       # number of demand (read+write) MSHR miss cycles
system.l2.overall_mshr_miss_latency::.cpu.inst     67946000                       # number of overall MSHR miss cycles
system.l2.overall_mshr_miss_latency::.cpu.data    201381000                       # number of overall MSHR miss cycles
system.l2.overall_mshr_miss_latency::total    269327000                       # number of overall MSHR miss cycles
system.l2.demand_mshr_miss_rate::.cpu.inst     0.947805                       # mshr miss rate for demand accesses
system.l2.demand_mshr_miss_rate::.cpu.data     0.209199                       # mshr miss rate for demand accesses
system.l2.demand_mshr_miss_rate::total       0.261862                       # mshr miss rate for demand accesses
system.l2.overall_mshr_miss_rate::.cpu.inst     0.947805                       # mshr miss rate for overall accesses
system.l2.overall_mshr_miss_rate::.cpu.data     0.209199                       # mshr miss rate for overall accesses
system.l2.overall_mshr_miss_rate::total      0.261862                       # mshr miss rate for overall accesses
system.l2.demand_avg_mshr_miss_latency::.cpu.inst 85038.798498                       # average overall mshr miss latency
system.l2.demand_avg_mshr_miss_latency::.cpu.data 87671.310405                       # average overall mshr miss latency
system.l2.demand_avg_mshr_miss_latency::total 86991.925065                       # average overall mshr miss latency
system.l2.overall_avg_mshr_miss_latency::.cpu.inst 85038.798498                       # average overall mshr miss latency
system.l2.overall_avg_mshr_miss_latency::.cpu.data 87671.310405                       # average overall mshr miss latency
system.l2.overall_avg_mshr_miss_latency::total 86991.925065                       # average overall mshr miss latency
system.l2.replacements                             21                       # number of replacements
system.l2.WritebackDirty_hits::.writebacks         9206                       # number of WritebackDirty hits
system.l2.WritebackDirty_hits::total             9206                       # number of WritebackDirty hits
system.l2.WritebackDirty_accesses::.writebacks         9206                       # number of WritebackDirty accesses(hits+misses)
system.l2.WritebackDirty_accesses::total         9206                       # number of WritebackDirty accesses(hits+misses)
system.l2.WritebackClean_hits::.writebacks           27                       # number of WritebackClean hits
system.l2.WritebackClean_hits::total               27                       # number of WritebackClean hits
system.l2.WritebackClean_accesses::.writebacks           27                       # number of WritebackClean accesses(hits+misses)
system.l2.WritebackClean_accesses::total           27                       # number of WritebackClean accesses(hits+misses)
system.l2.ReadExReq_hits::.cpu.data              6675                       # number of ReadExReq hits
system.l2.ReadExReq_hits::total                  6675                       # number of ReadExReq hits
system.l2.ReadExReq_misses::.cpu.data            1852                       # number of ReadExReq misses
system.l2.ReadExReq_misses::total                1852                       # number of ReadExReq misses
system.l2.ReadExReq_miss_latency::.cpu.data    198700000                       # number of ReadExReq miss cycles
system.l2.ReadExReq_miss_latency::total     198700000                       # number of ReadExReq miss cycles
system.l2.ReadExReq_accesses::.cpu.data          8527                       # number of ReadExReq accesses(hits+misses)
system.l2.ReadExReq_accesses::total              8527                       # number of ReadExReq accesses(hits+misses)
system.l2.ReadExReq_miss_rate::.cpu.data     0.217192                       # miss rate for ReadExReq accesses
system.l2.ReadExReq_miss_rate::total         0.217192                       # miss rate for ReadExReq accesses
system.l2.ReadExReq_avg_miss_latency::.cpu.data 107289.416847                       # average ReadExReq miss latency
system.l2.ReadExReq_avg_miss_latency::total 107289.416847                       # average ReadExReq miss latency
system.l2.ReadExReq_mshr_misses::.cpu.data         1852                       # number of ReadExReq MSHR misses
system.l2.ReadExReq_mshr_misses::total           1852                       # number of ReadExReq MSHR misses
system.l2.ReadExReq_mshr_miss_latency::.cpu.data    161660000                       # number of ReadExReq MSHR miss cycles
system.l2.ReadExReq_mshr_miss_latency::total    161660000                       # number of ReadExReq MSHR miss cycles
system.l2.ReadExReq_mshr_miss_rate::.cpu.data     0.217192                       # mshr miss rate for ReadExReq accesses
system.l2.ReadExReq_mshr_miss_rate::total     0.217192                       # mshr miss rate for ReadExReq accesses
system.l2.ReadExReq_avg_mshr_miss_latency::.cpu.data 87289.416847                       # average ReadExReq mshr miss latency
system.l2.ReadExReq_avg_mshr_miss_latency::total 87289.416847                       # average ReadExReq mshr miss latency
system.l2.ReadCleanReq_hits::.cpu.inst             41                       # number of ReadCleanReq hits
system.l2.ReadCleanReq_hits::total                 41                       # number of ReadCleanReq hits
system.l2.ReadCleanReq_misses::.cpu.inst          802                       # number of ReadCleanReq misses
system.l2.ReadCleanReq_misses::total              802                       # number of ReadCleanReq misses
system.l2.ReadCleanReq_miss_latency::.cpu.inst     84195000                       # number of ReadCleanReq miss cycles
system.l2.ReadCleanReq_miss_latency::total     84195000                       # number of ReadCleanReq miss cycles
system.l2.ReadCleanReq_accesses::.cpu.inst          843                       # number of ReadCleanReq accesses(hits+misses)
system.l2.ReadCleanReq_accesses::total            843                       # number of ReadCleanReq accesses(hits+misses)
system.l2.ReadCleanReq_miss_rate::.cpu.inst     0.951364                       # miss rate for ReadCleanReq accesses
system.l2.ReadCleanReq_miss_rate::total      0.951364                       # miss rate for ReadCleanReq accesses
system.l2.ReadCleanReq_avg_miss_latency::.cpu.inst 104981.296758                       # average ReadCleanReq miss latency
system.l2.ReadCleanReq_avg_miss_latency::total 104981.296758                       # average ReadCleanReq miss latency
system.l2.ReadCleanReq_mshr_hits::.cpu.inst            3                       # number of ReadCleanReq MSHR hits
system.l2.ReadCleanReq_mshr_hits::total             3                       # number of ReadCleanReq MSHR hits
system.l2.ReadCleanReq_mshr_misses::.cpu.inst          799                       # number of ReadCleanReq MSHR misses
system.l2.ReadCleanReq_mshr_misses::total          799                       # number of ReadCleanReq MSHR misses
system.l2.ReadCleanReq_mshr_miss_latency::.cpu.inst     67946000                       # number of ReadCleanReq MSHR miss cycles
system.l2.ReadCleanReq_mshr_miss_latency::total     67946000                       # number of ReadCleanReq MSHR miss cycles
system.l2.ReadCleanReq_mshr_miss_rate::.cpu.inst     0.947805                       # mshr miss rate for ReadCleanReq accesses
system.l2.ReadCleanReq_mshr_miss_rate::total     0.947805                       # mshr miss rate for ReadCleanReq accesses
system.l2.ReadCleanReq_avg_mshr_miss_latency::.cpu.inst 85038.798498                       # average ReadCleanReq mshr miss latency
system.l2.ReadCleanReq_avg_mshr_miss_latency::total 85038.798498                       # average ReadCleanReq mshr miss latency
system.l2.ReadSharedReq_hits::.cpu.data          1998                       # number of ReadSharedReq hits
system.l2.ReadSharedReq_hits::total              1998                       # number of ReadSharedReq hits
system.l2.ReadSharedReq_misses::.cpu.data          455                       # number of ReadSharedReq misses
system.l2.ReadSharedReq_misses::total             455                       # number of ReadSharedReq misses
system.l2.ReadSharedReq_miss_latency::.cpu.data     49477000                       # number of ReadSharedReq miss cycles
system.l2.ReadSharedReq_miss_latency::total     49477000                       # number of ReadSharedReq miss cycles
system.l2.ReadSharedReq_accesses::.cpu.data         2453                       # number of ReadSharedReq accesses(hits+misses)
system.l2.ReadSharedReq_accesses::total          2453                       # number of ReadSharedReq accesses(hits+misses)
system.l2.ReadSharedReq_miss_rate::.cpu.data     0.185487                       # miss rate for ReadSharedReq accesses
system.l2.ReadSharedReq_miss_rate::total     0.185487                       # miss rate for ReadSharedReq accesses
system.l2.ReadSharedReq_avg_miss_latency::.cpu.data 108740.659341                       # average ReadSharedReq miss latency
system.l2.ReadSharedReq_avg_miss_latency::total 108740.659341                       # average ReadSharedReq miss latency
system.l2.ReadSharedReq_mshr_hits::.cpu.data           10                       # number of ReadSharedReq MSHR hits
system.l2.ReadSharedReq_mshr_hits::total           10                       # number of ReadSharedReq MSHR hits
system.l2.ReadSharedReq_mshr_misses::.cpu.data          445                       # number of ReadSharedReq MSHR misses
system.l2.ReadSharedReq_mshr_misses::total          445                       # number of ReadSharedReq MSHR misses
system.l2.ReadSharedReq_mshr_miss_latency::.cpu.data     39721000                       # number of ReadSharedReq MSHR miss cycles
system.l2.ReadSharedReq_mshr_miss_latency::total     39721000                       # number of ReadSharedReq MSHR miss cycles
system.l2.ReadSharedReq_mshr_miss_rate::.cpu.data     0.181411                       # mshr miss rate for ReadSharedReq accesses
system.l2.ReadSharedReq_mshr_miss_rate::total     0.181411                       # mshr miss rate for ReadSharedReq accesses
system.l2.ReadSharedReq_avg_mshr_miss_latency::.cpu.data 89260.674157                       # average ReadSharedReq mshr miss latency
system.l2.ReadSharedReq_avg_mshr_miss_latency::total 89260.674157                       # average ReadSharedReq mshr miss latency
system.l2.tags.pwrStateResidencyTicks::UNDEFINED 117918168000                       # Cumulative time (in ticks) in various power states
system.l2.tags.tagsinuse                  2976.037429                       # Cycle average of tags in use
system.l2.tags.total_refs                       21521                       # Total number of references to valid blocks.
system.l2.tags.sampled_refs                      3096                       # Sample count of references to valid blocks.
system.l2.tags.avg_refs                      6.951227                       # Average number of references to valid blocks.
system.l2.tags.warmup_cycle                     92000                       # Cycle when the warmup percentage was hit.
system.l2.tags.occ_blocks::.cpu.inst       780.383600                       # Average occupied blocks per requestor
system.l2.tags.occ_blocks::.cpu.data      2195.653829                       # Average occupied blocks per requestor
system.l2.tags.occ_percent::.cpu.inst        0.095262                       # Average percentage of cache occupancy
system.l2.tags.occ_percent::.cpu.data        0.268024                       # Average percentage of cache occupancy
system.l2.tags.occ_percent::total            0.363286                       # Average percentage of cache occupancy
system.l2.tags.occ_task_id_blocks::1024          3075                       # Occupied blocks per task id
system.l2.tags.age_task_id_blocks_1024::4         3075                       # Occupied blocks per task id
system.l2.tags.occ_task_id_percent::1024     0.375366                       # Percentage of cache occupancy per task id
system.l2.tags.tag_accesses                     46164                       # Number of tag accesses
system.l2.tags.data_accesses                    46164                       # Number of data accesses
system.cpu_voltage_domain.voltage                   1                       # Voltage in Volts
system.mem_ctrls.pwrStateResidencyTicks::UNDEFINED 117918168000                       # Cumulative time (in ticks) in various power states
system.mem_ctrls.bytes_read::.cpu.inst         102272                       # Number of bytes read from this memory
system.mem_ctrls.bytes_read::.cpu.data         294016                       # Number of bytes read from this memory
system.mem_ctrls.bytes_read::total             396288                       # Number of bytes read from this memory
system.mem_ctrls.bytes_inst_read::.cpu.inst       102272                       # Number of instructions bytes read from this memory
system.mem_ctrls.bytes_inst_read::total        102272                       # Number of instructions bytes read from this memory
system.mem_ctrls.num_reads::.cpu.inst             799                       # Number of read requests responded to by this memory
system.mem_ctrls.num_reads::.cpu.data            2297                       # Number of read requests responded to by this memory
system.mem_ctrls.num_reads::total                3096                       # Number of read requests responded to by this memory
system.mem_ctrls.bw_read::.cpu.inst            867313                       # Total read bandwidth from this memory (bytes/s)
system.mem_ctrls.bw_read::.cpu.data           2493390                       # Total read bandwidth from this memory (bytes/s)
system.mem_ctrls.bw_read::total               3360704                       # Total read bandwidth from this memory (bytes/s)
system.mem_ctrls.bw_inst_read::.cpu.inst       867313                       # Instruction read bandwidth from this memory (bytes/s)
system.mem_ctrls.bw_inst_read::total           867313                       # Instruction read bandwidth from this memory (bytes/s)
system.mem_ctrls.bw_total::.cpu.inst           867313                       # Total bandwidth to/from this memory (bytes/s)
system.mem_ctrls.bw_total::.cpu.data          2493390                       # Total bandwidth to/from this memory (bytes/s)
system.mem_ctrls.bw_total::total              3360704                       # Total bandwidth to/from this memory (bytes/s)
system.mem_ctrls.avgPriority_.cpu.inst::samples      1598.00                       # Average QoS priority value for accepted requests
system.mem_ctrls.avgPriority_.cpu.data::samples      4594.00                       # Average QoS priority value for accepted requests
system.mem_ctrls.priorityMinLatency      0.000000018750                       # per QoS priority minimum request to response latency (s)
system.mem_ctrls.priorityMaxLatency      0.000000677500                       # per QoS priority maximum request to response latency (s)
system.mem_ctrls.numReadWriteTurnArounds            0                       # Number of turnarounds from READ to WRITE
system.mem_ctrls.numWriteReadTurnArounds            0                       # Number of turnarounds from WRITE to READ
system.mem_ctrls.numStayReadState               39566                       # Number of times bus staying in READ state
system.mem_ctrls.numStayWriteState                  0                       # Number of times bus staying in WRITE state
system.mem_ctrls.readReqs                        3096                       # Number of read requests accepted
system.mem_ctrls.writeReqs                          0                       # Number of write requests accepted
system.mem_ctrls.readBursts                      6192                       # Number of DRAM read bursts, including those serviced by the write queue
system.mem_ctrls.writeBursts                        0                       # Number of DRAM write bursts, including those merged in the write queue
system.mem_ctrls.servicedByWrQ                      0                       # Number of DRAM read bursts serviced by the write queue
system.mem_ctrls.mergedWrBursts                     0                       # Number of DRAM write bursts merged with an existing one
system.mem_ctrls.neitherReadNorWriteReqs            0                       # Number of requests that are neither read nor write
system.mem_ctrls.perBankRdBursts::0               396                       # Per bank write bursts
system.mem_ctrls.perBankRdBursts::1               342                       # Per bank write bursts
system.mem_ctrls.perBankRdBursts::2               360                       # Per bank write bursts
system.mem_ctrls.perBankRdBursts::3               352                       # Per bank write bursts
system.mem_ctrls.perBankRdBursts::4               332                       # Per bank write bursts
system.mem_ctrls.perBankRdBursts::5               588                       # Per bank write bursts
system.mem_ctrls.perBankRdBursts::6               384                       # Per bank write bursts
system.mem_ctrls.perBankRdBursts::7               466                       # Per bank write bursts
system.mem_ctrls.perBankRdBursts::8               310                       # Per bank write bursts
system.mem_ctrls.perBankRdBursts::9               376                       # Per bank write bursts
system.mem_ctrls.perBankRdBursts::10              424                       # Per bank write bursts
system.mem_ctrls.perBankRdBursts::11              410                       # Per bank write bursts
system.mem_ctrls.perBankRdBursts::12              446                       # Per bank write bursts
system.mem_ctrls.perBankRdBursts::13              374                       # Per bank write bursts
system.mem_ctrls.perBankRdBursts::14              324                       # Per bank write bursts
system.mem_ctrls.perBankRdBursts::15              308                       # Per bank write bursts
system.mem_ctrls.perBankWrBursts::0                 0                       # Per bank write bursts
system.mem_ctrls.perBankWrBursts::1                 0                       # Per bank write bursts
system.mem_ctrls.perBankWrBursts::2                 0                       # Per bank write bursts
system.mem_ctrls.perBankWrBursts::3                 0                       # Per bank write bursts
system.mem_ctrls.perBankWrBursts::4                 0                       # Per bank write bursts
system.mem_ctrls.perBankWrBursts::5                 0                       # Per bank write bursts
system.mem_ctrls.perBankWrBursts::6                 0                       # Per bank write bursts
system.mem_ctrls.perBankWrBursts::7                 0                       # Per bank write bursts
system.mem_ctrls.perBankWrBursts::8                 0                       # Per bank write bursts
system.mem_ctrls.perBankWrBursts::9                 0                       # Per bank write bursts
system.mem_ctrls.perBankWrBursts::10                0                       # Per bank write bursts
system.mem_ctrls.perBankWrBursts::11                0                       # Per bank write bursts
system.mem_ctrls.perBankWrBursts::12                0                       # Per bank write bursts
system.mem_ctrls.perBankWrBursts::13                0                       # Per bank write bursts
system.mem_ctrls.perBankWrBursts::14                0                       # Per bank write bursts
system.mem_ctrls.perBankWrBursts::15                0                       # Per bank write bursts
system.mem_ctrls.avgRdQLen                       2.01                       # Average read queue length when enqueuing
system.mem_ctrls.avgWrQLen                       0.00                       # Average write queue length when enqueuing
system.mem_ctrls.totQLat                     88671250                       # Total ticks spent queuing
system.mem_ctrls.totBusLat                   30960000                       # Total ticks spent in databus transfers
system.mem_ctrls.totMemAccLat               204771250                       # Total ticks spent from burst creation until serviced by the DRAM
system.mem_ctrls.avgQLat                     14320.29                       # Average queueing delay per DRAM burst
system.mem_ctrls.avgBusLat                    5000.00                       # Average bus latency per DRAM burst
system.mem_ctrls.avgMemAccLat                33070.29                       # Average memory access latency per DRAM burst
system.mem_ctrls.numRdRetry                         0                       # Number of times read queue was full causing retry
system.mem_ctrls.numWrRetry                         0                       # Number of times write queue was full causing retry
system.mem_ctrls.readRowHits                     4734                       # Number of row buffer hits during reads
system.mem_ctrls.writeRowHits                       0                       # Number of row buffer hits during writes
system.mem_ctrls.readRowHitRate                 76.45                       # Row buffer hit rate for reads
system.mem_ctrls.writeRowHitRate                  nan                       # Row buffer hit rate for writes
system.mem_ctrls.readPktSize::0                     0                       # Read request sizes (log2)
system.mem_ctrls.readPktSize::1                     0                       # Read request sizes (log2)
system.mem_ctrls.readPktSize::2                     0                       # Read request sizes (log2)
system.mem_ctrls.readPktSize::3                     0                       # Read request sizes (log2)
system.mem_ctrls.readPktSize::4                     0                       # Read request sizes (log2)
system.mem_ctrls.readPktSize::5                     0                       # Read request sizes (log2)
system.mem_ctrls.readPktSize::6                  6192                       # Read request sizes (log2)
system.mem_ctrls.writePktSize::0                    0                       # Write request sizes (log2)
system.mem_ctrls.writePktSize::1                    0                       # Write request sizes (log2)
system.mem_ctrls.writePktSize::2                    0                       # Write request sizes (log2)
system.mem_ctrls.writePktSize::3                    0                       # Write request sizes (log2)
system.mem_ctrls.writePktSize::4                    0                       # Write request sizes (log2)
system.mem_ctrls.writePktSize::5                    0                       # Write request sizes (log2)
system.mem_ctrls.writePktSize::6                    0                       # Write request sizes (log2)
system.mem_ctrls.rdQLenPdf::0                    2888                       # What read queue length does an incoming req see
system.mem_ctrls.rdQLenPdf::1                    2898                       # What read queue length does an incoming req see
system.mem_ctrls.rdQLenPdf::2                     204                       # What read queue length does an incoming req see
system.mem_ctrls.rdQLenPdf::3                     194                       # What read queue length does an incoming req see
system.mem_ctrls.rdQLenPdf::4                       4                       # What read queue length does an incoming req see
system.mem_ctrls.rdQLenPdf::5                       4                       # What read queue length does an incoming req see
system.mem_ctrls.rdQLenPdf::6                       0                       # What read queue length does an incoming req see
system.mem_ctrls.rdQLenPdf::7                       0                       # What read queue length does an incoming req see
system.mem_ctrls.rdQLenPdf::8                       0                       # What read queue length does an incoming req see
system.mem_ctrls.rdQLenPdf::9                       0                       # What read queue length does an incoming req see
system.mem_ctrls.rdQLenPdf::10                      0                       # What read queue length does an incoming req see
system.mem_ctrls.rdQLenPdf::11                      0                       # What read queue length does an incoming req see
system.mem_ctrls.rdQLenPdf::12                      0                       # What read queue length does an incoming req see
system.mem_ctrls.rdQLenPdf::13                      0                       # What read queue length does an incoming req see
system.mem_ctrls.rdQLenPdf::14                      0                       # What read queue length does an incoming req see
system.mem_ctrls.rdQLenPdf::15                      0                       # What read queue length does an incoming req see
system.mem_ctrls.rdQLenPdf::16                      0                       # What read queue length does an incoming req see
system.mem_ctrls.rdQLenPdf::17                      0                       # What read queue length does an incoming req see
system.mem_ctrls.rdQLenPdf::18                      0                       # What read queue length does an incoming req see
system.mem_ctrls.rdQLenPdf::19                      0                       # What read queue length does an incoming req see
system.mem_ctrls.rdQLenPdf::20                      0                       # What read queue length does an incoming req see
system.mem_ctrls.rdQLenPdf::21                      0                       # What read queue length does an incoming req see
system.mem_ctrls.rdQLenPdf::22                      0                       # What read queue length does an incoming req see
system.mem_ctrls.rdQLenPdf::23                      0                       # What read queue length does an incoming req see
system.mem_ctrls.rdQLenPdf::24                      0                       # What read queue length does an incoming req see
system.mem_ctrls.rdQLenPdf::25                      0                       # What read queue length does an incoming req see
system.mem_ctrls.rdQLenPdf::26                      0                       # What read queue length does an incoming req see
system.mem_ctrls.rdQLenPdf::27                      0                       # What read queue length does an incoming req see
system.mem_ctrls.rdQLenPdf::28                      0                       # What read queue length does an incoming req see
system.mem_ctrls.rdQLenPdf::29                      0                       # What read queue length does an incoming req see
system.mem_ctrls.rdQLenPdf::30                      0                       # What read queue length does an incoming req see
system.mem_ctrls.rdQLenPdf::31                      0                       # What read queue length does an incoming req see
system.mem_ctrls.wrQLenPdf::0                       0                       # What write queue length does an incoming req see
system.mem_ctrls.wrQLenPdf::1                       0                       # What write queue length does an incoming req see
system.mem_ctrls.wrQLenPdf::2                       0                       # What write queue length does an incoming req see
system.mem_ctrls.wrQLenPdf::3                       0                       # What write queue length does an incoming req see
system.mem_ctrls.wrQLenPdf::4                       0                       # What write queue length does an incoming req see
system.mem_ctrls.wrQLenPdf::5                       0                       # What write queue length does an incoming req see
system.mem_ctrls.wrQLenPdf::6                       0                       # What write queue length does an incoming req see
system.mem_ctrls.wrQLenPdf::7                       0                       # What write queue length does an incoming req see
system.mem_ctrls.wrQLenPdf::8                       0                       # What write queue length does an incoming req see
system.mem_ctrls.wrQLenPdf::9                       0                       # What write queue length does an incoming req see
system.mem_ctrls.wrQLenPdf::10                      0                       # What write queue length does an incoming req see
system.mem_ctrls.wrQLenPdf::11                      0                       # What write queue length does an incoming req see
system.mem_ctrls.wrQLenPdf::12                      0                       # What write queue length does an incoming req see
system.mem_ctrls.wrQLenPdf::13                      0                       # What write queue length does an incoming req see
system.mem_ctrls.wrQLenPdf::14                      0                       # What write queue length does an incoming req see
system.mem_ctrls.wrQLenPdf::15                      0                       # What write queue length does an incoming req see
system.mem_ctrls.wrQLenPdf::16                      0                       # What write queue length does an incoming req see
system.mem_ctrls.wrQLenPdf::17                      0                       # What write queue length does an incoming req see
system.mem_ctrls.wrQLenPdf::18                      0                       # What write queue length does an incoming req see
system.mem_ctrls.wrQLenPdf::19                      0                       # What write queue length does an incoming req see
system.mem_ctrls.wrQLenPdf::20                      0                       # What write queue length does an incoming req see
system.mem_ctrls.wrQLenPdf::21                      0                       # What write queue length does an incoming req see
system.mem_ctrls.wrQLenPdf::22                      0                       # What write queue length does an incoming req see
system.mem_ctrls.wrQLenPdf::23                      0                       # What write queue length does an incoming req see
system.mem_ctrls.wrQLenPdf::24                      0                       # What write queue length does an incoming req see
system.mem_ctrls.wrQLenPdf::25                      0                       # What write queue length does an incoming req see
system.mem_ctrls.wrQLenPdf::26                      0                       # What write queue length does an incoming req see
system.mem_ctrls.wrQLenPdf::27                      0                       # What write queue length does an incoming req see
system.mem_ctrls.wrQLenPdf::28                      0                       # What write queue length does an incoming req see
system.mem_ctrls.wrQLenPdf::29                      0                       # What write queue length does an incoming req see
system.mem_ctrls.wrQLenPdf::30                      0                       # What write queue length does an incoming req see
system.mem_ctrls.wrQLenPdf::31                      0                       # What write queue length does an incoming req see
system.mem_ctrls.wrQLenPdf::32                      0                       # What write queue length does an incoming req see
system.mem_ctrls.wrQLenPdf::33                      0                       # What write queue length does an incoming req see
system.mem_ctrls.wrQLenPdf::34                      0                       # What write queue length does an incoming req see
system.mem_ctrls.wrQLenPdf::35                      0                       # What write queue length does an incoming req see
system.mem_ctrls.wrQLenPdf::36                      0                       # What write queue length does an incoming req see
system.mem_ctrls.wrQLenPdf::37                      0                       # What write queue length does an incoming req see
system.mem_ctrls.wrQLenPdf::38                      0                       # What write queue length does an incoming req see
system.mem_ctrls.wrQLenPdf::39                      0                       # What write queue length does an incoming req see
system.mem_ctrls.wrQLenPdf::40                      0                       # What write queue length does an incoming req see
system.mem_ctrls.wrQLenPdf::41                      0                       # What write queue length does an incoming req see
system.mem_ctrls.wrQLenPdf::42                      0                       # What write queue length does an incoming req see
system.mem_ctrls.wrQLenPdf::43                      0                       # What write queue length does an incoming req see
system.mem_ctrls.wrQLenPdf::44                      0                       # What write queue length does an incoming req see
system.mem_ctrls.wrQLenPdf::45                      0                       # What write queue length does an incoming req see
system.mem_ctrls.wrQLenPdf::46                      0                       # What write queue length does an incoming req see
system.mem_ctrls.wrQLenPdf::47                      0                       # What write queue length does an incoming req see
system.mem_ctrls.wrQLenPdf::48                      0                       # What write queue length does an incoming req see
system.mem_ctrls.wrQLenPdf::49                      0                       # What write queue length does an incoming req see
system.mem_ctrls.wrQLenPdf::50                      0                       # What write queue length does an incoming req see
system.mem_ctrls.wrQLenPdf::51                      0                       # What write queue length does an incoming req see
system.mem_ctrls.wrQLenPdf::52                      0                       # What write queue length does an incoming req see
system.mem_ctrls.wrQLenPdf::53                      0                       # What write queue length does an incoming req see
system.mem_ctrls.wrQLenPdf::54                      0                       # What write queue length does an incoming req see
system.mem_ctrls.wrQLenPdf::55                      0                       # What write queue length does an incoming req see
system.mem_ctrls.wrQLenPdf::56                      0                       # What write queue length does an incoming req see
system.mem_ctrls.wrQLenPdf::57                      0                       # What write queue length does an incoming req see
system.mem_ctrls.wrQLenPdf::58                      0                       # What write queue length does an incoming req see
system.mem_ctrls.wrQLenPdf::59                      0                       # What write queue length does an incoming req see
system.mem_ctrls.wrQLenPdf::60                      0                       # What write queue length does an incoming req see
system.mem_ctrls.wrQLenPdf::61                      0                       # What write queue length does an incoming req see
system.mem_ctrls.wrQLenPdf::62                      0                       # What write queue length does an incoming req see
system.mem_ctrls.wrQLenPdf::63                      0                       # What write queue length does an incoming req see
system.mem_ctrls.bytesPerActivate::samples         1458                       # Bytes accessed per row activation
system.mem_ctrls.bytesPerActivate::mean    271.802469                       # Bytes accessed per row activation
system.mem_ctrls.bytesPerActivate::gmean   193.816161                       # Bytes accessed per row activation
system.mem_ctrls.bytesPerActivate::stdev   283.299947                       # Bytes accessed per row activation
system.mem_ctrls.bytesPerActivate::0-127            1      0.07%      0.07% # Bytes accessed per row activation
system.mem_ctrls.bytesPerActivate::128-255         1039     71.26%     71.33% # Bytes accessed per row activation
system.mem_ctrls.bytesPerActivate::256-383          103      7.06%     78.40% # Bytes accessed per row activation
system.mem_ctrls.bytesPerActivate::384-511           72      4.94%     83.33% # Bytes accessed per row activation
system.mem_ctrls.bytesPerActivate::512-639           45      3.09%     86.42% # Bytes accessed per row activation
system.mem_ctrls.bytesPerActivate::640-767           20      1.37%     87.79% # Bytes accessed per row activation
system.mem_ctrls.bytesPerActivate::768-895           24      1.65%     89.44% # Bytes accessed per row activation
system.mem_ctrls.bytesPerActivate::896-1023           22      1.51%     90.95% # Bytes accessed per row activation
system.mem_ctrls.bytesPerActivate::1024-1151          132      9.05%    100.00% # Bytes accessed per row activation
system.mem_ctrls.bytesPerActivate::total         1458                       # Bytes accessed per row activation
system.mem_ctrls.bytesReadDRAM                 396288                       # Total number of bytes read from DRAM
system.mem_ctrls.bytesReadWrQ                       0                       # Total number of bytes read from write queue
system.mem_ctrls.bytesWritten                       0                       # Total number of bytes written to DRAM
system.mem_ctrls.bytesReadSys                  396288                       # Total read bytes from the system interface side
system.mem_ctrls.bytesWrittenSys                    0                       # Total written bytes from the system interface side
system.mem_ctrls.avgRdBW                         3.36                       # Average DRAM read bandwidth in MiByte/s
system.mem_ctrls.avgWrBW                         0.00                       # Average achieved write bandwidth in MiByte/s
system.mem_ctrls.avgRdBWSys                      3.36                       # Average system read bandwidth in MiByte/s
system.mem_ctrls.avgWrBWSys                      0.00                       # Average system write bandwidth in MiByte/s
system.mem_ctrls.peakBW                      12800.00                       # Theoretical peak bandwidth in MiByte/s
system.mem_ctrls.busUtil                         0.03                       # Data bus utilization in percentage
system.mem_ctrls.busUtilRead                     0.03                       # Data bus utilization in percentage for reads
system.mem_ctrls.busUtilWrite                    0.00                       # Data bus utilization in percentage for writes
system.mem_ctrls.totGap                   15983539000                       # Total gap between requests
system.mem_ctrls.avgGap                    5162641.80                       # Average gap between requests
system.mem_ctrls.masterReadBytes::.cpu.inst       102272                       # Per-master bytes read from memory
system.mem_ctrls.masterReadBytes::.cpu.data       294016                       # Per-master bytes read from memory
system.mem_ctrls.masterReadRate::.cpu.inst 867313.338857164024                       # Per-master bytes read from memory rate (Bytes/sec)
system.mem_ctrls.masterReadRate::.cpu.data 2493390.161896002013                       # Per-master bytes read from memory rate (Bytes/sec)
system.mem_ctrls.masterReadAccesses::.cpu.inst         1598                       # Per-master read serviced memory accesses
system.mem_ctrls.masterReadAccesses::.cpu.data         4594                       # Per-master read serviced memory accesses
system.mem_ctrls.masterReadTotalLat::.cpu.inst     49549250                       # Per-master read total memory access latency
system.mem_ctrls.masterReadTotalLat::.cpu.data    155222000                       # Per-master read total memory access latency
system.mem_ctrls.masterReadAvgLat::.cpu.inst     31007.04                       # Per-master read average memory access latency
system.mem_ctrls.masterReadAvgLat::.cpu.data     33787.98                       # Per-master read average memory access latency
system.mem_ctrls.pageHitRate                    76.45                       # Row buffer hit rate, read and write combined
[...]
system.cpu.icache.ReadReq_miss_rate::total     0.000055                       # miss rate for ReadReq accesses
system.cpu.icache.ReadReq_avg_miss_latency::.cpu.inst 105996.441281                       # average ReadReq miss latency
system.cpu.icache.ReadReq_avg_miss_latency::total 105996.441281                       # average ReadReq miss latency
system.cpu.icache.ReadReq_mshr_misses::.cpu.inst          843                       # number of ReadReq MSHR misses
system.cpu.icache.ReadReq_mshr_misses::total          843                       # number of ReadReq MSHR misses
system.cpu.icache.ReadReq_mshr_miss_latency::.cpu.inst     87669000                       # number of ReadReq MSHR miss cycles
system.cpu.icache.ReadReq_mshr_miss_latency::total     87669000                       # number of ReadReq MSHR miss cycles
system.cpu.icache.ReadReq_mshr_miss_rate::.cpu.inst     0.000055                       # mshr miss rate for ReadReq accesses
system.cpu.icache.ReadReq_mshr_miss_rate::total     0.000055                       # mshr miss rate for ReadReq accesses
system.cpu.icache.ReadReq_avg_mshr_miss_latency::.cpu.inst 103996.441281                       # average ReadReq mshr miss latency
system.cpu.icache.ReadReq_avg_mshr_miss_latency::total 103996.441281                       # average ReadReq mshr miss latency
system.cpu.icache.tags.pwrStateResidencyTicks::UNDEFINED 117918168000                       # Cumulative time (in ticks) in various power states
system.cpu.icache.tags.tagsinuse           813.001829                       # Cycle average of tags in use
system.cpu.icache.tags.total_refs            15388068                       # Total number of references to valid blocks.
system.cpu.icache.tags.sampled_refs               843                       # Sample count of references to valid blocks.
system.cpu.icache.tags.avg_refs          18253.935943                       # Average number of references to valid blocks.
system.cpu.icache.tags.warmup_cycle            113000                       # Cycle when the warmup percentage was hit.
system.cpu.icache.tags.occ_blocks::.cpu.inst   813.001829                       # Average occupied blocks per requestor
system.cpu.icache.tags.occ_percent::.cpu.inst     0.793947                       # Average percentage of cache occupancy
system.cpu.icache.tags.occ_percent::total     0.793947                       # Average percentage of cache occupancy
system.cpu.icache.tags.occ_task_id_blocks::1024          816                       # Occupied blocks per task id
system.cpu.icache.tags.age_task_id_blocks_1024::4          816                       # Occupied blocks per task id
system.cpu.icache.tags.occ_task_id_percent::1024     0.796875                       # Percentage of cache occupancy per task id
system.cpu.icache.tags.tag_accesses         123105387                       # Number of tag accesses
system.cpu.icache.tags.data_accesses        123105387                       # Number of data accesses
system.cpu.dtb.walker.pwrStateResidencyTicks::UNDEFINED 117918168000                       # Cumulative time (in ticks) in various power states
system.cpu.dtb.stage2_mmu.stage2_tlb.walker.pwrStateResidencyTicks::UNDEFINED 117918168000                       # Cumulative time (in ticks) in various power states
system.cpu.dcache.pwrStateResidencyTicks::UNDEFINED 117918168000                       # Cumulative time (in ticks) in various power states
system.cpu.dcache.demand_hits::.cpu.data     43859345                       # number of demand (read+write) hits
system.cpu.dcache.demand_hits::total         43859345                       # number of demand (read+write) hits
system.cpu.dcache.overall_hits::.cpu.data     43867970                       # number of overall hits
system.cpu.dcache.overall_hits::total        43867970                       # number of overall hits
system.cpu.dcache.demand_misses::.cpu.data        13160                       # number of demand (read+write) misses
system.cpu.dcache.demand_misses::total          13160                       # number of demand (read+write) misses
system.cpu.dcache.overall_misses::.cpu.data        13229                       # number of overall misses
system.cpu.dcache.overall_misses::total         13229                       # number of overall misses
system.cpu.dcache.demand_miss_latency::.cpu.data    627098000                       # number of demand (read+write) miss cycles
system.cpu.dcache.demand_miss_latency::total    627098000                       # number of demand (read+write) miss cycles
system.cpu.dcache.overall_miss_latency::.cpu.data    627098000                       # number of overall miss cycles
system.cpu.dcache.overall_miss_latency::total    627098000                       # number of overall miss cycles
system.cpu.dcache.demand_accesses::.cpu.data     43872505                       # number of demand (read+write) accesses
system.cpu.dcache.demand_accesses::total     43872505                       # number of demand (read+write) accesses
system.cpu.dcache.overall_accesses::.cpu.data     43881199                       # number of overall (read+write) accesses
system.cpu.dcache.overall_accesses::total     43881199                       # number of overall (read+write) accesses
system.cpu.dcache.demand_miss_rate::.cpu.data     0.000300                       # miss rate for demand accesses
system.cpu.dcache.demand_miss_rate::total     0.000300                       # miss rate for demand accesses
system.cpu.dcache.overall_miss_rate::.cpu.data     0.000301                       # miss rate for overall accesses
system.cpu.dcache.overall_miss_rate::total     0.000301                       # miss rate for overall accesses
system.cpu.dcache.demand_avg_miss_latency::.cpu.data 47651.823708                       # average overall miss latency
system.cpu.dcache.demand_avg_miss_latency::total 47651.823708                       # average overall miss latency
system.cpu.dcache.overall_avg_miss_latency::.cpu.data 47403.280671                       # average overall miss latency
system.cpu.dcache.overall_avg_miss_latency::total 47403.280671                       # average overall miss latency
system.cpu.dcache.blocked_cycles::no_mshrs            0                       # number of cycles access was blocked
system.cpu.dcache.blocked_cycles::no_targets            0                       # number of cycles access was blocked
system.cpu.dcache.blocked::no_mshrs                 0                       # number of cycles access was blocked
system.cpu.dcache.blocked::no_targets               0                       # number of cycles access was blocked
system.cpu.dcache.avg_blocked_cycles::no_mshrs          nan                       # average number of cycles each access was blocked
system.cpu.dcache.avg_blocked_cycles::no_targets          nan                       # average number of cycles each access was blocked
system.cpu.dcache.writebacks::.writebacks         9206                       # number of writebacks
system.cpu.dcache.writebacks::total              9206                       # number of writebacks
system.cpu.dcache.demand_mshr_hits::.cpu.data         2223                       # number of demand (read+write) MSHR hits
system.cpu.dcache.demand_mshr_hits::total         2223                       # number of demand (read+write) MSHR hits
system.cpu.dcache.overall_mshr_hits::.cpu.data         2223                       # number of overall MSHR hits
system.cpu.dcache.overall_mshr_hits::total         2223                       # number of overall MSHR hits
system.cpu.dcache.demand_mshr_misses::.cpu.data        10937                       # number of demand (read+write) MSHR misses
system.cpu.dcache.demand_mshr_misses::total        10937                       # number of demand (read+write) MSHR misses
system.cpu.dcache.overall_mshr_misses::.cpu.data        10980                       # number of overall MSHR misses
system.cpu.dcache.overall_mshr_misses::total        10980                       # number of overall MSHR misses
system.cpu.dcache.demand_mshr_miss_latency::.cpu.data    459160000                       # number of demand (read+write) MSHR miss cycles
system.cpu.dcache.demand_mshr_miss_latency::total    459160000                       # number of demand (read+write) MSHR miss cycles
system.cpu.dcache.overall_mshr_miss_latency::.cpu.data    464001000                       # number of overall MSHR miss cycles
system.cpu.dcache.overall_mshr_miss_latency::total    464001000                       # number of overall MSHR miss cycles
system.cpu.dcache.demand_mshr_miss_rate::.cpu.data     0.000249                       # mshr miss rate for demand accesses
system.cpu.dcache.demand_mshr_miss_rate::total     0.000249                       # mshr miss rate for demand accesses
system.cpu.dcache.overall_mshr_miss_rate::.cpu.data     0.000250                       # mshr miss rate for overall accesses
system.cpu.dcache.overall_mshr_miss_rate::total     0.000250                       # mshr miss rate for overall accesses
system.cpu.dcache.demand_avg_mshr_miss_latency::.cpu.data 41982.262046                       # average overall mshr miss latency
system.cpu.dcache.demand_avg_mshr_miss_latency::total 41982.262046                       # average overall mshr miss latency
system.cpu.dcache.overall_avg_mshr_miss_latency::.cpu.data 42258.743169                       # average overall mshr miss latency
system.cpu.dcache.overall_avg_mshr_miss_latency::total 42258.743169                       # average overall mshr miss latency
system.cpu.dcache.replacements                   9956                       # number of replacements
system.cpu.dcache.ReadReq_hits::.cpu.data     37545160                       # number of ReadReq hits
system.cpu.dcache.ReadReq_hits::total        37545160                       # number of ReadReq hits
system.cpu.dcache.ReadReq_misses::.cpu.data         2492                       # number of ReadReq misses
system.cpu.dcache.ReadReq_misses::total          2492                       # number of ReadReq misses
system.cpu.dcache.ReadReq_miss_latency::.cpu.data    105426000                       # number of ReadReq miss cycles
system.cpu.dcache.ReadReq_miss_latency::total    105426000                       # number of ReadReq miss cycles
system.cpu.dcache.ReadReq_accesses::.cpu.data     37547652                       # number of ReadReq accesses(hits+misses)
system.cpu.dcache.ReadReq_accesses::total     37547652                       # number of ReadReq accesses(hits+misses)
system.cpu.dcache.ReadReq_miss_rate::.cpu.data     0.000066                       # miss rate for ReadReq accesses
system.cpu.dcache.ReadReq_miss_rate::total     0.000066                       # miss rate for ReadReq accesses
system.cpu.dcache.ReadReq_avg_miss_latency::.cpu.data 42305.778491                       # average ReadReq miss latency
system.cpu.dcache.ReadReq_avg_miss_latency::total 42305.778491                       # average ReadReq miss latency
system.cpu.dcache.ReadReq_mshr_hits::.cpu.data           82                       # number of ReadReq MSHR hits
system.cpu.dcache.ReadReq_mshr_hits::total           82                       # number of ReadReq MSHR hits
system.cpu.dcache.ReadReq_mshr_misses::.cpu.data         2410                       # number of ReadReq MSHR misses
system.cpu.dcache.ReadReq_mshr_misses::total         2410                       # number of ReadReq MSHR misses
system.cpu.dcache.ReadReq_mshr_miss_latency::.cpu.data     94700000                       # number of ReadReq MSHR miss cycles
system.cpu.dcache.ReadReq_mshr_miss_latency::total     94700000                       # number of ReadReq MSHR miss cycles
system.cpu.dcache.ReadReq_mshr_miss_rate::.cpu.data     0.000064                       # mshr miss rate for ReadReq accesses
system.cpu.dcache.ReadReq_mshr_miss_rate::total     0.000064                       # mshr miss rate for ReadReq accesses
system.cpu.dcache.ReadReq_avg_mshr_miss_latency::.cpu.data 39294.605809                       # average ReadReq mshr miss latency
system.cpu.dcache.ReadReq_avg_mshr_miss_latency::total 39294.605809                       # average ReadReq mshr miss latency
system.cpu.dcache.WriteReq_hits::.cpu.data      6314185                       # number of WriteReq hits
system.cpu.dcache.WriteReq_hits::total        6314185                       # number of WriteReq hits
system.cpu.dcache.WriteReq_misses::.cpu.data        10668                       # number of WriteReq misses
system.cpu.dcache.WriteReq_misses::total        10668                       # number of WriteReq misses
system.cpu.dcache.WriteReq_miss_latency::.cpu.data    521672000                       # number of WriteReq miss cycles
system.cpu.dcache.WriteReq_miss_latency::total    521672000                       # number of WriteReq miss cycles
system.cpu.dcache.WriteReq_accesses::.cpu.data      6324853                       # number of WriteReq accesses(hits+misses)
system.cpu.dcache.WriteReq_accesses::total      6324853                       # number of WriteReq accesses(hits+misses)
system.cpu.dcache.WriteReq_miss_rate::.cpu.data     0.001687                       # miss rate for WriteReq accesses
system.cpu.dcache.WriteReq_miss_rate::total     0.001687                       # miss rate for WriteReq accesses
system.cpu.dcache.WriteReq_avg_miss_latency::.cpu.data 48900.637420                       # average WriteReq miss latency
system.cpu.dcache.WriteReq_avg_miss_latency::total 48900.637420                       # average WriteReq miss latency
system.cpu.dcache.WriteReq_mshr_hits::.cpu.data         2141                       # number of WriteReq MSHR hits
system.cpu.dcache.WriteReq_mshr_hits::total         2141                       # number of WriteReq MSHR hits
system.cpu.dcache.WriteReq_mshr_misses::.cpu.data         8527                       # number of WriteReq MSHR misses
system.cpu.dcache.WriteReq_mshr_misses::total         8527                       # number of WriteReq MSHR misses
system.cpu.dcache.WriteReq_mshr_miss_latency::.cpu.data    364460000                       # number of WriteReq MSHR miss cycles
system.cpu.dcache.WriteReq_mshr_miss_latency::total    364460000                       # number of WriteReq MSHR miss cycles
system.cpu.dcache.WriteReq_mshr_miss_rate::.cpu.data     0.001348                       # mshr miss rate for WriteReq accesses
system.cpu.dcache.WriteReq_mshr_miss_rate::total     0.001348                       # mshr miss rate for WriteReq accesses
system.cpu.dcache.WriteReq_avg_mshr_miss_latency::.cpu.data 42741.878738                       # average WriteReq mshr miss latency
system.cpu.dcache.WriteReq_avg_mshr_miss_latency::total 42741.878738                       # average WriteReq mshr miss latency
system.cpu.dcache.SoftPFReq_hits::.cpu.data         8625                       # number of SoftPFReq hits
system.cpu.dcache.SoftPFReq_hits::total          8625                       # number of SoftPFReq hits
system.cpu.dcache.SoftPFReq_misses::.cpu.data           69                       # number of SoftPFReq misses
system.cpu.dcache.SoftPFReq_misses::total           69                       # number of SoftPFReq misses
system.cpu.dcache.SoftPFReq_accesses::.cpu.data         8694                       # number of SoftPFReq accesses(hits+misses)
system.cpu.dcache.SoftPFReq_accesses::total         8694                       # number of SoftPFReq accesses(hits+misses)
system.cpu.dcache.SoftPFReq_miss_rate::.cpu.data     0.007937                       # miss rate for SoftPFReq accesses
system.cpu.dcache.SoftPFReq_miss_rate::total     0.007937                       # miss rate for SoftPFReq accesses
system.cpu.dcache.SoftPFReq_mshr_misses::.cpu.data           43                       # number of SoftPFReq MSHR misses
system.cpu.dcache.SoftPFReq_mshr_misses::total           43                       # number of SoftPFReq MSHR misses
system.cpu.dcache.SoftPFReq_mshr_miss_latency::.cpu.data      4841000                       # number of SoftPFReq MSHR miss cycles
system.cpu.dcache.SoftPFReq_mshr_miss_latency::total      4841000                       # number of SoftPFReq MSHR miss cycles
system.cpu.dcache.SoftPFReq_mshr_miss_rate::.cpu.data     0.004946                       # mshr miss rate for SoftPFReq accesses
system.cpu.dcache.SoftPFReq_mshr_miss_rate::total     0.004946                       # mshr miss rate for SoftPFReq accesses
system.cpu.dcache.SoftPFReq_avg_mshr_miss_latency::.cpu.data 112581.395349                       # average SoftPFReq mshr miss latency
system.cpu.dcache.SoftPFReq_avg_mshr_miss_latency::total 112581.395349                       # average SoftPFReq mshr miss latency
system.cpu.dcache.LoadLockedReq_hits::.cpu.data          166                       # number of LoadLockedReq hits
system.cpu.dcache.LoadLockedReq_hits::total          166                       # number of LoadLockedReq hits
system.cpu.dcache.LoadLockedReq_accesses::.cpu.data          166                       # number of LoadLockedReq accesses(hits+misses)
system.cpu.dcache.LoadLockedReq_accesses::total          166                       # number of LoadLockedReq accesses(hits+misses)
system.cpu.dcache.StoreCondReq_hits::.cpu.data          166                       # number of StoreCondReq hits
system.cpu.dcache.StoreCondReq_hits::total          166                       # number of StoreCondReq hits
system.cpu.dcache.StoreCondReq_accesses::.cpu.data          166                       # number of StoreCondReq accesses(hits+misses)
system.cpu.dcache.StoreCondReq_accesses::total          166                       # number of StoreCondReq accesses(hits+misses)
system.cpu.dcache.tags.pwrStateResidencyTicks::UNDEFINED 117918168000                       # Cumulative time (in ticks) in various power states
system.cpu.dcache.tags.tagsinuse          1011.804377                       # Cycle average of tags in use
system.cpu.dcache.tags.total_refs            43879282                       # Total number of references to valid blocks.
system.cpu.dcache.tags.sampled_refs             10980                       # Sample count of references to valid blocks.
system.cpu.dcache.tags.avg_refs           3996.291621                       # Average number of references to valid blocks.
system.cpu.dcache.tags.warmup_cycle            233000                       # Cycle when the warmup percentage was hit.
system.cpu.dcache.tags.occ_blocks::.cpu.data  1011.804377                       # Average occupied blocks per requestor
system.cpu.dcache.tags.occ_percent::.cpu.data     0.988090                       # Average percentage of cache occupancy
system.cpu.dcache.tags.occ_percent::total     0.988090                       # Average percentage of cache occupancy
system.cpu.dcache.tags.occ_task_id_blocks::1024         1024                       # Occupied blocks per task id
system.cpu.dcache.tags.age_task_id_blocks_1024::2           63                       # Occupied blocks per task id
system.cpu.dcache.tags.age_task_id_blocks_1024::3          708                       # Occupied blocks per task id
system.cpu.dcache.tags.age_task_id_blocks_1024::4          253                       # Occupied blocks per task id
system.cpu.dcache.tags.occ_task_id_percent::1024            1                       # Percentage of cache occupancy per task id
system.cpu.dcache.tags.tag_accesses         351063228                       # Number of tag accesses
system.cpu.dcache.tags.data_accesses        351063228                       # Number of data accesses
system.cpu.itb.walker.pwrStateResidencyTicks::UNDEFINED 117918168000                       # Cumulative time (in ticks) in various power states
system.cpu.itb.stage2_mmu.stage2_tlb.walker.pwrStateResidencyTicks::UNDEFINED 117918168000                       # Cumulative time (in ticks) in various power states

---------- End Simulation Statistics   ----------
