
---------- Begin Simulation Statistics ----------
final_tick                               118327896000                       # Number of ticks from beginning of simulation (restored from checkpoints and never reset)
host_inst_rate                                 368823                       # Simulator instruction rate (inst/s)
host_mem_usage                                 718632                       # Number of bytes of host memory used
host_op_rate                                   372963                       # Simulator op (including micro ops) rate (op/s)
host_seconds                                   271.13                       # Real time elapsed on the host
host_tick_rate                              436420571                       # Simulator tick rate (ticks/s)
sim_freq                                 1000000000000                       # Frequency of simulated ticks
sim_insts                                   100000000                       # Number of instructions simulated
sim_ops                                     101122354                       # Number of ops (including micro ops) simulated
sim_seconds                                  0.118328                       # Number of seconds simulated
sim_ticks                                118327896000                       # Number of ticks simulated
system.cpu.branchPred.BTBCorrect                    0                       # Number of correct BTB predictions (this stat may not work properly.
system.cpu.branchPred.BTBHitPct             84.821906                       # BTB Hit Percentage
system.cpu.branchPred.BTBHits                 4083788                       # Number of BTB hits
system.cpu.branchPred.BTBLookups              4814544                       # Number of BTB lookups
system.cpu.branchPred.RASInCorrect                 20                       # Number of incorrect RAS predictions.
system.cpu.branchPred.condIncorrect            345764                       # Number of conditional branches incorrect
system.cpu.branchPred.condPredicted           5099093                       # Number of conditional branches predicted
system.cpu.branchPred.indirectHits             102840                       # Number of indirect target hits.
system.cpu.branchPred.indirectLookups          675282                       # Number of indirect predictor lookups.
system.cpu.branchPred.indirectMisses           572442                       # Number of indirect misses.
system.cpu.branchPred.lookups                 6506475                       # Number of BP lookups
system.cpu.branchPred.usedRAS                  312295                       # Number of times the RAS was used to get a target.
system.cpu.branchPredindirectMispredicted        35003                       # Number of mispredicted indirect branches.
system.cpu.committedInsts                   100000000                       # Number of instructions committed
system.cpu.committedOps                     101122354                       # Number of ops (including micro ops) committed
system.cpu.cpi                               1.183279                       # CPI: cycles per instruction
system.cpu.discardedOps                        950964                       # Number of ops (including micro ops) which were discarded before commit
system.cpu.dtb.accesses                             0                       # DTB accesses
system.cpu.dtb.align_faults                         0                       # Number of TLB faults due to alignment restrictions
system.cpu.dtb.domain_faults                        0                       # Number of TLB faults due to domain restrictions
system.cpu.dtb.flush_entries                        0                       # Number of entries that have been flushed from TLB
system.cpu.dtb.flush_tlb                            0                       # Number of times complete TLB was flushed
system.cpu.dtb.flush_tlb_asid                       0                       # Number of times TLB was flushed by ASID
system.cpu.dtb.flush_tlb_mva                        0                       # Number of times TLB was flushed by MVA
system.cpu.dtb.flush_tlb_mva_asid                   0                       # Number of times TLB was flushed by MVA & ASID
system.cpu.dtb.hits                                 0                       # DTB hits
system.cpu.dtb.inst_accesses                        0                       # ITB inst accesses
system.cpu.dtb.inst_hits                            0                       # ITB inst hits
system.cpu.dtb.inst_misses                          0                       # ITB inst misses
system.cpu.dtb.misses                               0                       # DTB misses
system.cpu.dtb.perms_faults                         0                       # Number of TLB faults due to permissions restrictions
system.cpu.dtb.prefetch_faults                      0                       # Number of TLB faults due to prefetch
system.cpu.dtb.read_accesses                        0                       # DTB read accesses
system.cpu.dtb.read_hits                            0                       # DTB read hits
system.cpu.dtb.read_misses                          0                       # DTB read misses
system.cpu.dtb.stage2_mmu.stage2_tlb.accesses            0                       # DTB accesses
system.cpu.dtb.stage2_mmu.stage2_tlb.align_faults            0                       # Number of TLB faults due to alignment restrictions
system.cpu.dtb.stage2_mmu.stage2_tlb.domain_faults            0                       # Number of TLB faults due to domain restrictions
system.cpu.dtb.stage2_mmu.stage2_tlb.flush_entries            0                       # Number of entries that have been flushed from TLB
system.cpu.dtb.stage2_mmu.stage2_tlb.flush_tlb            0                       # Number of times complete TLB was flushed
system.cpu.dtb.stage2_mmu.stage2_tlb.flush_tlb_asid            0                       # Number of times TLB was flushed by ASID
system.cpu.dtb.stage2_mmu.stage2_tlb.flush_tlb_mva            0                       # Number of times TLB was flushed by MVA
system.cpu.dtb.stage2_mmu.stage2_tlb.flush_tlb_mva_asid            0                       # Number of times TLB was flushed by MVA & ASID
system.cpu.dtb.stage2_mmu.stage2_tlb.hits            0                       # DTB hits
system.cpu.dtb.stage2_mmu.stage2_tlb.inst_accesses            0                       # ITB inst accesses
system.cpu.dtb.stage2_mmu.stage2_tlb.inst_hits            0                       # ITB inst hits
system.cpu.dtb.stage2_mmu.stage2_tlb.inst_misses            0                       # ITB inst misses
system.cpu.dtb.stage2_mmu.stage2_tlb.misses            0                       # DTB misses
system.cpu.dtb.stage2_mmu.stage2_tlb.perms_faults            0                       # Number of TLB faults due to permissions restrictions
system.cpu.dtb.stage2_mmu.stage2_tlb.prefetch_faults            0                       # Number of TLB faults due to prefetch
system.cpu.dtb.stage2_mmu.stage2_tlb.read_accesses            0                       # DTB read accesses
system.cpu.dtb.stage2_mmu.stage2_tlb.read_hits            0                       # DTB read hits
system.cpu.dtb.stage2_mmu.stage2_tlb.read_misses            0                       # DTB read misses
system.cpu.dtb.stage2_mmu.stage2_tlb.walker.walkRequestOrigin_Requested::Data            0                       # Table walker requests started/completed, data/inst
system.cpu.dtb.stage2_mmu.stage2_tlb.walker.walkRequestOrigin_Requested::Inst            0                       # Table walker requests started/completed, data/inst
system.cpu.dtb.stage2_mmu.stage2_tlb.walker.walkRequestOrigin_Requested::total            0                       # Table walker requests started/completed, data/inst
system.cpu.dtb.stage2_mmu.stage2_tlb.walker.walkRequestOrigin_Completed::Data            0                       # Table walker requests started/completed, data/inst
system.cpu.dtb.stage2_mmu.stage2_tlb.walker.walkRequestOrigin_Completed::Inst            0                       # Table walker requests started/completed, data/inst
system.cpu.dtb.stage2_mmu.stage2_tlb.walker.walkRequestOrigin_Completed::total            0                       # Table walker requests started/completed, data/inst
system.cpu.dtb.stage2_mmu.stage2_tlb.walker.walkRequestOrigin::total            0                       # Table walker requests started/completed, data/inst
system.cpu.dtb.stage2_mmu.stage2_tlb.walker.walks            0                       # Table walker walks requested
system.cpu.dtb.stage2_mmu.stage2_tlb.write_accesses            0                       # DTB write accesses
system.cpu.dtb.stage2_mmu.stage2_tlb.write_hits            0                       # DTB write hits
system.cpu.dtb.stage2_mmu.stage2_tlb.write_misses            0                       # DTB write misses
system.cpu.dtb.walker.walkRequestOrigin_Requested::Data            0                       # Table walker requests started/completed, data/inst
system.cpu.dtb.walker.walkRequestOrigin_Requested::Inst            0                       # Table walker requests started/completed, data/inst
system.cpu.dtb.walker.walkRequestOrigin_Requested::total            0                       # Table walker requests started/completed, data/inst
system.cpu.dtb.walker.walkRequestOrigin_Completed::Data            0                       # Table walker requests started/completed, data/inst
system.cpu.dtb.walker.walkRequestOrigin_Completed::Inst            0                       # Table walker requests started/completed, data/inst
system.cpu.dtb.walker.walkRequestOrigin_Completed::total            0                       # Table walker requests started/completed, data/inst
system.cpu.dtb.walker.walkRequestOrigin::total            0                       # Table walker requests started/completed, data/inst
system.cpu.dtb.walker.walks                         0                       # Table walker walks requested
system.cpu.dtb.write_accesses                       0                       # DTB write accesses
system.cpu.dtb.write_hits                           0                       # DTB write hits
system.cpu.dtb.write_misses                         0                       # DTB write misses
system.cpu.fetch2.amo_instructions                  0                       # Number of memory atomic instructions successfully decoded
system.cpu.fetch2.fp_instructions                   0                       # Number of floating point instructions successfully decoded
system.cpu.fetch2.int_instructions           48883730                       # Number of integer instructions successfully decoded
system.cpu.fetch2.load_instructions          40548010                       # Number of memory load instructions successfully decoded
system.cpu.fetch2.store_instructions          6262194                       # Number of memory store instructions successfully decoded
system.cpu.fetch2.vec_instructions                  0                       # Number of SIMD instructions successfully decoded
system.cpu.idleCycles                         2504334                       # Total number of cycles that the object has spent stopped
system.cpu.ipc                               0.845109                       # IPC: instructions per cycle
system.cpu.itb.accesses                             0                       # DTB accesses
system.cpu.itb.align_faults                         0                       # Number of TLB faults due to alignment restrictions
system.cpu.itb.domain_faults                        0                       # Number of TLB faults due to domain restrictions
system.cpu.itb.flush_entries                        0                       # Number of entries that have been flushed from TLB
system.cpu.itb.flush_tlb                            0                       # Number of times complete TLB was flushed
system.cpu.itb.flush_tlb_asid                       0                       # Number of times TLB was flushed by ASID
system.cpu.itb.flush_tlb_mva                        0                       # Number of times TLB was flushed by MVA
system.cpu.itb.flush_tlb_mva_asid                   0                       # Number of times TLB was flushed by MVA & ASID
system.cpu.itb.hits                                 0                       # DTB hits
system.cpu.itb.inst_accesses                        0                       # ITB inst accesses
system.cpu.itb.inst_hits                            0                       # ITB inst hits
system.cpu.itb.inst_misses                          0                       # ITB inst misses
system.cpu.itb.misses                               0                       # DTB misses
system.cpu.itb.perms_faults                         0                       # Number of TLB faults due to permissions restrictions
system.cpu.itb.prefetch_faults                      0                       # Number of TLB faults due to prefetch
system.cpu.itb.read_accesses                        0                       # DTB read accesses
system.cpu.itb.read_hits                            0                       # DTB read hits
system.cpu.itb.read_misses                          0                       # DTB read misses
system.cpu.itb.stage2_mmu.stage2_tlb.accesses            0                       # DTB accesses
system.cpu.itb.stage2_mmu.stage2_tlb.align_faults            0                       # Number of TLB faults due to alignment restrictions
system.cpu.itb.stage2_mmu.stage2_tlb.domain_faults            0                       # Number of TLB faults due to domain restrictions
system.cpu.itb.stage2_mmu.stage2_tlb.flush_entries            0                       # Number of entries that have been flushed from TLB
system.cpu.itb.stage2_mmu.stage2_tlb.flush_tlb            0                       # Number of times complete TLB was flushed
system.cpu.itb.stage2_mmu.stage2_tlb.flush_tlb_asid            0                       # Number of times TLB was flushed by ASID
system.cpu.itb.stage2_mmu.stage2_tlb.flush_tlb_mva            0                       # Number of times TLB was flushed by MVA
system.cpu.itb.stage2_mmu.stage2_tlb.flush_tlb_mva_asid            0                       # Number of times TLB was flushed by MVA & ASID
system.cpu.itb.stage2_mmu.stage2_tlb.hits            0                       # DTB hits
system.cpu.itb.stage2_mmu.stage2_tlb.inst_accesses            0                       # ITB inst accesses
system.cpu.itb.stage2_mmu.stage2_tlb.inst_hits            0                       # ITB inst hits
system.cpu.itb.stage2_mmu.stage2_tlb.inst_misses            0                       # ITB inst misses
system.cpu.itb.stage2_mmu.stage2_tlb.misses            0                       # DTB misses
system.cpu.itb.stage2_mmu.stage2_tlb.perms_faults            0                       # Number of TLB faults due to permissions restrictions
system.cpu.itb.stage2_mmu.stage2_tlb.prefetch_faults            0                       # Number of TLB faults due to prefetch
system.cpu.itb.stage2_mmu.stage2_tlb.read_accesses            0                       # DTB read accesses
system.cpu.itb.stage2_mmu.stage2_tlb.read_hits            0                       # DTB read hits
system.cpu.itb.stage2_mmu.stage2_tlb.read_misses            0                       # DTB read misses
system.cpu.itb.stage2_mmu.stage2_tlb.walker.walkRequestOrigin_Requested::Data            0                       # Table walker requests started/completed, data/inst
system.cpu.itb.stage2_mmu.stage2_tlb.walker.walkRequestOrigin_Requested::Inst            0                       # Table walker requests started/completed, data/inst
system.cpu.itb.stage2_mmu.stage2_tlb.walker.walkRequestOrigin_Requested::total            0                       # Table walker requests started/completed, data/inst
system.cpu.itb.stage2_mmu.stage2_tlb.walker.walkRequestOrigin_Completed::Data            0                       # Table walker requests started/completed, data/inst
system.cpu.itb.stage2_mmu.stage2_tlb.walker.walkRequestOrigin_Completed::Inst            0                       # Table walker requests started/completed, data/inst
system.cpu.itb.stage2_mmu.stage2_tlb.walker.walkRequestOrigin_Completed::total            0                       # Table walker requests started/completed, data/inst
system.cpu.itb.stage2_mmu.stage2_tlb.walker.walkRequestOrigin::total            0                       # Table walker requests started/completed, data/inst
system.cpu.itb.stage2_mmu.stage2_tlb.walker.walks            0                       # Table walker walks requested
system.cpu.itb.stage2_mmu.stage2_tlb.write_accesses            0                       # DTB write accesses
system.cpu.itb.stage2_mmu.stage2_tlb.write_hits            0                       # DTB write hits
system.cpu.itb.stage2_mmu.stage2_tlb.write_misses            0                       # DTB write misses
system.cpu.itb.walker.walkRequestOrigin_Requested::Data            0                       # Table walker requests started/completed, data/inst
system.cpu.itb.walker.walkRequestOrigin_Requested::Inst            0                       # Table walker requests started/completed, data/inst
system.cpu.itb.walker.walkRequestOrigin_Requested::total            0                       # Table walker requests started/completed, data/inst
system.cpu.itb.walker.walkRequestOrigin_Completed::Data            0                       # Table walker requests started/completed, data/inst
system.cpu.itb.walker.walkRequestOrigin_Completed::Inst            0                       # Table walker requests started/completed, data/inst
system.cpu.itb.walker.walkRequestOrigin_Completed::total            0                       # Table walker requests started/completed, data/inst
system.cpu.itb.walker.walkRequestOrigin::total            0                       # Table walker requests started/completed, data/inst
system.cpu.itb.walker.walks                         0                       # Table walker walks requested
system.cpu.itb.write_accesses                       0                       # DTB write accesses
system.cpu.itb.write_hits                           0                       # DTB write hits
system.cpu.itb.write_misses                         0                       # DTB write misses
system.cpu.numCycles                        118327896                       # number of cpu cycles simulated
system.cpu.numFetchSuspends                         0                       # Number of times Execute suspended instruction fetching
system.cpu.numWorkItemsCompleted                    0                       # number of work items this cpu completed
system.cpu.numWorkItemsStarted                      0                       # number of work items this cpu started
system.cpu.op_class_0::No_OpClass                   0      0.00%      0.00% # Class of committed instruction
system.cpu.op_class_0::IntAlu                55111288     54.50%     54.50% # Class of committed instruction
system.cpu.op_class_0::IntMult                 167845      0.17%     54.67% # Class of committed instruction
system.cpu.op_class_0::IntDiv                       0      0.00%     54.67% # Class of committed instruction
system.cpu.op_class_0::FloatAdd                     0      0.00%     54.67% # Class of committed instruction
system.cpu.op_class_0::FloatCmp                     0      0.00%     54.67% # Class of committed instruction
system.cpu.op_class_0::FloatCvt                     0      0.00%     54.67% # Class of committed instruction
system.cpu.op_class_0::FloatMult                    0      0.00%     54.67% # Class of committed instruction
system.cpu.op_class_0::FloatMultAcc                 0      0.00%     54.67% # Class of committed instruction
system.cpu.op_class_0::FloatDiv                     0      0.00%     54.67% # Class of committed instruction
system.cpu.op_class_0::FloatMisc                    0      0.00%     54.67% # Class of committed instruction
system.cpu.op_class_0::FloatSqrt                    0      0.00%     54.67% # Class of committed instruction
system.cpu.op_class_0::SimdAdd                    380      0.00%     54.67% # Class of committed instruction
system.cpu.op_class_0::SimdAddAcc                   0      0.00%     54.67% # Class of committed instruction
system.cpu.op_class_0::SimdAlu                    470      0.00%     54.67% # Class of committed instruction
system.cpu.op_class_0::SimdCmp                    382      0.00%     54.67% # Class of committed instruction
system.cpu.op_class_0::SimdCvt                      0      0.00%     54.67% # Class of committed instruction
system.cpu.op_class_0::SimdMisc                    53      0.00%     54.67% # Class of committed instruction
system.cpu.op_class_0::SimdMult                     0      0.00%     54.67% # Class of committed instruction
system.cpu.op_class_0::SimdMultAcc                  0      0.00%     54.67% # Class of committed instruction
system.cpu.op_class_0::SimdShift                    0      0.00%     54.67% # Class of committed instruction
system.cpu.op_class_0::SimdShiftAcc                 0      0.00%     54.67% # Class of committed instruction
system.cpu.op_class_0::SimdDiv                      0      0.00%     54.67% # Class of committed instruction
system.cpu.op_class_0::SimdSqrt                     0      0.00%     54.67% # Class of committed instruction
system.cpu.op_class_0::SimdFloatAdd            282752      0.28%     54.95% # Class of committed instruction
system.cpu.op_class_0::SimdFloatAlu                 0      0.00%     54.95% # Class of committed instruction
system.cpu.op_class_0::SimdFloatCmp            266991      0.26%     55.21% # Class of committed instruction
system.cpu.op_class_0::SimdFloatCvt            163440      0.16%     55.37% # Class of committed instruction
system.cpu.op_class_0::SimdFloatDiv             54308      0.05%     55.43% # Class of committed instruction
system.cpu.op_class_0::SimdFloatMisc           505318      0.50%     55.93% # Class of committed instruction
system.cpu.op_class_0::SimdFloatMult            36718      0.04%     55.96% # Class of committed instruction
system.cpu.op_class_0::SimdFloatMultAcc         10949      0.01%     55.97% # Class of committed instruction
system.cpu.op_class_0::SimdFloatSqrt                0      0.00%     55.97% # Class of committed instruction
system.cpu.op_class_0::SimdReduceAdd                0      0.00%     55.97% # Class of committed instruction
system.cpu.op_class_0::SimdReduceAlu                0      0.00%     55.97% # Class of committed instruction
system.cpu.op_class_0::SimdReduceCmp                0      0.00%     55.97% # Class of committed instruction
system.cpu.op_class_0::SimdFloatReduceAdd            0      0.00%     55.97% # Class of committed instruction
system.cpu.op_class_0::SimdFloatReduceCmp            0      0.00%     55.97% # Class of committed instruction
system.cpu.op_class_0::SimdAes                      0      0.00%     55.97% # Class of committed instruction
system.cpu.op_class_0::SimdAesMix                   0      0.00%     55.97% # Class of committed instruction
system.cpu.op_class_0::SimdSha1Hash                 0      0.00%     55.97% # Class of committed instruction
system.cpu.op_class_0::SimdSha1Hash2                0      0.00%     55.97% # Class of committed instruction
system.cpu.op_class_0::SimdSha256Hash               0      0.00%     55.97% # Class of committed instruction
system.cpu.op_class_0::SimdSha256Hash2              0      0.00%     55.97% # Class of committed instruction
system.cpu.op_class_0::SimdShaSigma2                0      0.00%     55.97% # Class of committed instruction
system.cpu.op_class_0::SimdShaSigma3                0      0.00%     55.97% # Class of committed instruction
system.cpu.op_class_0::SimdPredAlu                  0      0.00%     55.97% # Class of committed instruction
system.cpu.op_class_0::MemRead               38138372     37.72%     93.69% # Class of committed instruction
system.cpu.op_class_0::MemWrite               6383088      6.31%    100.00% # Class of committed instruction
system.cpu.op_class_0::FloatMemRead                 0      0.00%    100.00% # Class of committed instruction
system.cpu.op_class_0::FloatMemWrite                0      0.00%    100.00% # Class of committed instruction
system.cpu.op_class_0::IprAccess                    0      0.00%    100.00% # Class of committed instruction
system.cpu.op_class_0::InstPrefetch                 0      0.00%    100.00% # Class of committed instruction
system.cpu.op_class_0::total                101122354                       # Class of committed instruction
system.cpu.tickCycles                       115823562                       # Number of cycles that the object actually ticked
system.cpu.workload.numSyscalls                    33                       # Number of system calls
system.membus.snoop_filter.hit_multi_requests            0                       # Number of requests hitting in the snoop filter with multiple (>1) holders of the requested data.
system.membus.snoop_filter.hit_multi_snoops            0                       # Number of snoops hitting in the snoop filter with multiple (>1) holders of the requested data.
system.membus.snoop_filter.hit_single_requests            0                       # Number of requests hitting in the snoop filter with a single holder of the requested data.
system.membus.snoop_filter.hit_single_snoops            0                       # Number of snoops hitting in the snoop filter with a single holder of the requested data.
system.membus.snoop_filter.tot_requests          5783                       # Total number of requests made to the snoop filter.
system.membus.snoop_filter.tot_snoops               0                       # Total number of snoops made to the snoop filter.
system.tol2bus.snoop_filter.hit_multi_requests         1186                       # Number of requests hitting in the snoop filter with multiple (>1) holders of the requested data.
system.tol2bus.snoop_filter.hit_multi_snoops            0                       # Number of snoops hitting in the snoop filter with multiple (>1) holders of the requested data.
system.tol2bus.snoop_filter.hit_single_requests        30832                       # Number of requests hitting in the snoop filter with a single holder of the requested data.
system.tol2bus.snoop_filter.hit_single_snoops            0                       # Number of snoops hitting in the snoop filter with a single holder of the requested data.
system.tol2bus.snoop_filter.tot_requests        63938                       # Total number of requests made to the snoop filter.
system.tol2bus.snoop_filter.tot_snoops              0                       # Total number of snoops made to the snoop filter.
system.membus.pwrStateResidencyTicks::UNDEFINED 118327896000                       # Cumulative time (in ticks) in various power states
system.membus.trans_dist::ReadResp               2114                       # Transaction distribution
system.membus.trans_dist::ReadExReq              3669                       # Transaction distribution
system.membus.trans_dist::ReadExResp             3669                       # Transaction distribution
system.membus.trans_dist::ReadSharedReq          2114                       # Transaction distribution
system.membus.pkt_count_system.l2.mem_side::system.mem_ctrls.port        11566                       # Packet count per connected master and slave (bytes)
system.membus.pkt_count::total                  11566                       # Packet count per connected master and slave (bytes)
system.membus.pkt_size_system.l2.mem_side::system.mem_ctrls.port       370112                       # Cumulative packet size per connected master and slave (bytes)
system.membus.pkt_size::total                  370112                       # Cumulative packet size per connected master and slave (bytes)
system.membus.snoops                                0                       # Total snoops (count)
system.membus.snoopTraffic                          0                       # Total snoop traffic (bytes)
system.membus.snoop_fanout::samples              5783                       # Request fanout histogram
system.membus.snoop_fanout::mean                    0                       # Request fanout histogram
system.membus.snoop_fanout::stdev                   0                       # Request fanout histogram
system.membus.snoop_fanout::underflows              0      0.00%      0.00% # Request fanout histogram
system.membus.snoop_fanout::0                    5783    100.00%    100.00% # Request fanout histogram
system.membus.snoop_fanout::1                       0      0.00%    100.00% # Request fanout histogram
system.membus.snoop_fanout::overflows               0      0.00%    100.00% # Request fanout histogram
system.membus.snoop_fanout::min_value               0                       # Request fanout histogram
system.membus.snoop_fanout::max_value               0                       # Request fanout histogram
system.membus.snoop_fanout::total                5783                       # Request fanout histogram
system.membus.respLayer1.occupancy           30838500                       # Layer occupancy (ticks)
system.membus.respLayer1.utilization              0.0                       # Layer utilization (%)
system.membus.reqLayer0.occupancy             5783000                       # Layer occupancy (ticks)
system.membus.reqLayer0.utilization               0.0                       # Layer utilization (%)
system.tol2bus.pwrStateResidencyTicks::UNDEFINED 118327896000                       # Cumulative time (in ticks) in various power states
system.tol2bus.trans_dist::ReadResp             17367                       # Transaction distribution
system.tol2bus.trans_dist::WritebackDirty        16756                       # Transaction distribution
system.tol2bus.trans_dist::WritebackClean        12960                       # Transaction distribution
system.tol2bus.trans_dist::CleanEvict            1101                       # Transaction distribution
system.tol2bus.trans_dist::ReadExReq            15754                       # Transaction distribution
system.tol2bus.trans_dist::ReadExResp           15754                       # Transaction distribution
system.tol2bus.trans_dist::ReadCleanReq         13216                       # Transaction distribution
system.tol2bus.trans_dist::ReadSharedReq         4151                       # Transaction distribution
system.tol2bus.pkt_count_system.cpu.icache.mem_side::system.l2.cpu_side        39392                       # Packet count per connected master and slave (bytes)
system.tol2bus.pkt_count_system.cpu.dcache.mem_side::system.l2.cpu_side        57667                       # Packet count per connected master and slave (bytes)
system.tol2bus.pkt_count::total                 97059                       # Packet count per connected master and slave (bytes)
system.tol2bus.pkt_size_system.cpu.icache.mem_side::system.l2.cpu_side      1675264                       # Cumulative packet size per connected master and slave (bytes)
system.tol2bus.pkt_size_system.cpu.dcache.mem_side::system.l2.cpu_side      2346304                       # Cumulative packet size per connected master and slave (bytes)
system.tol2bus.pkt_size::total                4021568                       # Cumulative packet size per connected master and slave (bytes)
system.tol2bus.snoops                               0                       # Total snoops (count)
system.tol2bus.snoopTraffic                         0                       # Total snoop traffic (bytes)
system.tol2bus.snoop_fanout::samples            33121                       # Request fanout histogram
system.tol2bus.snoop_fanout::mean            0.036261                       # Request fanout histogram
system.tol2bus.snoop_fanout::stdev           0.186942                       # Request fanout histogram
system.tol2bus.snoop_fanout::underflows             0      0.00%      0.00% # Request fanout histogram
system.tol2bus.snoop_fanout::0                  31920     96.37%     96.37% # Request fanout histogram
system.tol2bus.snoop_fanout::1                   1201      3.63%    100.00% # Request fanout histogram
system.tol2bus.snoop_fanout::2                      0      0.00%    100.00% # Request fanout histogram
system.tol2bus.snoop_fanout::overflows              0      0.00%    100.00% # Request fanout histogram
system.tol2bus.snoop_fanout::min_value              0                       # Request fanout histogram
system.tol2bus.snoop_fanout::max_value              1                       # Request fanout histogram
system.tol2bus.snoop_fanout::total              33121                       # Request fanout histogram
system.tol2bus.reqLayer0.occupancy          123370000                       # Layer occupancy (ticks)
system.tol2bus.reqLayer0.utilization              0.1                       # Layer utilization (%)
system.tol2bus.respLayer1.occupancy          59724990                       # Layer occupancy (ticks)
system.tol2bus.respLayer1.utilization             0.1                       # Layer utilization (%)
system.tol2bus.respLayer0.occupancy          39657990                       # Layer occupancy (ticks)
system.tol2bus.respLayer0.utilization             0.0                       # Layer utilization (%)
system.voltage_domain.voltage                       1                       # Voltage in Volts
system.clk_domain.clock                          1000                       # Clock period in ticks
system.l2.pwrStateResidencyTicks::UNDEFINED 118327896000                       # Cumulative time (in ticks) in various power states
system.l2.demand_hits::.cpu.inst                11902                       # number of demand (read+write) hits
system.l2.demand_hits::.cpu.data                15426                       # number of demand (read+write) hits
system.l2.demand_hits::total                    27328                       # number of demand (read+write) hits
system.l2.overall_hits::.cpu.inst               11902                       # number of overall hits
system.l2.overall_hits::.cpu.data               15426                       # number of overall hits
system.l2.overall_hits::total                   27328                       # number of overall hits
system.l2.demand_misses::.cpu.inst               1314                       # number of demand (read+write) misses
system.l2.demand_misses::.cpu.data               4479                       # number of demand (read+write) misses
system.l2.demand_misses::total                   5793                       # number of demand (read+write) misses
system.l2.overall_misses::.cpu.inst              1314                       # number of overall misses
system.l2.overall_misses::.cpu.data              4479                       # number of overall misses
system.l2.overall_misses::total                  5793                       # number of overall misses
system.l2.demand_miss_latency::.cpu.inst    128398000                       # number of demand (read+write) miss cycles
system.l2.demand_miss_latency::.cpu.data    447378000                       # number of demand (read+write) miss cycles
system.l2.demand_miss_latency::total        575776000                       # number of demand (read+write) miss cycles
system.l2.overall_miss_latency::.cpu.inst    128398000                       # number of overall miss cycles
system.l2.overall_miss_latency::.cpu.data    447378000                       # number of overall miss cycles
system.l2.overall_miss_latency::total       575776000                       # number of overall miss cycles
system.l2.demand_accesses::.cpu.inst            13216                       # number of demand (read+write) accesses
system.l2.demand_accesses::.cpu.data            19905                       # number of demand (read+write) accesses
system.l2.demand_accesses::total                33121                       # number of demand (read+write) accesses
system.l2.overall_accesses::.cpu.inst           13216                       # number of overall (read+write) accesses
system.l2.overall_accesses::.cpu.data           19905                       # number of overall (read+write) accesses
system.l2.overall_accesses::total               33121                       # number of overall (read+write) accesses
system.l2.demand_miss_rate::.cpu.inst        0.099425                       # miss rate for demand accesses
system.l2.demand_miss_rate::.cpu.data        0.225019                       # miss rate for demand accesses
system.l2.demand_miss_rate::total            0.174904                       # miss rate for demand accesses
system.l2.overall_miss_rate::.cpu.inst       0.099425                       # miss rate for overall accesses
system.l2.overall_miss_rate::.cpu.data       0.225019                       # miss rate for overall accesses
system.l2.overall_miss_rate::total           0.174904                       # miss rate for overall accesses
system.l2.demand_avg_miss_latency::.cpu.inst 97715.372907                       # average overall miss latency
system.l2.demand_avg_miss_latency::.cpu.data 99883.456129                       # average overall miss latency
system.l2.demand_avg_miss_latency::total 99391.679613                       # average overall miss latency
system.l2.overall_avg_miss_latency::.cpu.inst 97715.372907                       # average overall miss latency
system.l2.overall_avg_miss_latency::.cpu.data 99883.456129                       # average overall miss latency
system.l2.overall_avg_miss_latency::total 99391.679613                       # average overall miss latency
system.l2.blocked_cycles::no_mshrs                  0                       # number of cycles access was blocked
system.l2.blocked_cycles::no_targets                0                       # number of cycles access was blocked
system.l2.blocked::no_mshrs                         0                       # number of cycles access was blocked
system.l2.blocked::no_targets                       0                       # number of cycles access was blocked
system.l2.avg_blocked_cycles::no_mshrs            nan                       # average number of cycles each access was blocked
system.l2.avg_blocked_cycles::no_targets          nan                       # average number of cycles each access was blocked
system.l2.demand_mshr_hits::.cpu.inst               2                       # number of demand (read+write) MSHR hits
system.l2.demand_mshr_hits::.cpu.data               8                       # number of demand (read+write) MSHR hits
system.l2.demand_mshr_hits::total                  10                       # number of demand (read+write) MSHR hits
system.l2.overall_mshr_hits::.cpu.inst              2                       # number of overall MSHR hits
system.l2.overall_mshr_hits::.cpu.data              8                       # number of overall MSHR hits
system.l2.overall_mshr_hits::total                 10                       # number of overall MSHR hits
system.l2.demand_mshr_misses::.cpu.inst          1312                       # number of demand (read+write) MSHR misses
system.l2.demand_mshr_misses::.cpu.data          4471                       # number of demand (read+write) MSHR misses
system.l2.demand_mshr_misses::total              5783                       # number of demand (read+write) MSHR misses
system.l2.overall_mshr_misses::.cpu.inst         1312                       # number of overall MSHR misses
system.l2.overall_mshr_misses::.cpu.data         4471                       # number of overall MSHR misses
system.l2.overall_mshr_misses::total             5783                       # number of overall MSHR misses
system.l2.demand_mshr_miss_latency::.cpu.inst    101995000                       # number of demand (read+write) MSHR miss cycles
system.l2.demand_mshr_miss_latency::.cpu.data    357346000                       # number of demand (read+write) MSHR miss cycles
system.l2.demand_mshr_miss_latency::total    459341000                       # number of demand (read+write) MSHR miss cycles
system.l2.overall_mshr_miss_latency::.cpu.inst    101995000                       # number of overall MSHR miss cycles
system.l2.overall_mshr_miss_latency::.cpu.data    357346000                       # number of overall MSHR miss cycles
system.l2.overall_mshr_miss_latency::total    459341000                       # number of overall MSHR miss cycles
system.l2.demand_mshr_miss_rate::.cpu.inst     0.099274                       # mshr miss rate for demand accesses
system.l2.demand_mshr_miss_rate::.cpu.data     0.224617                       # mshr miss rate for demand accesses
system.l2.demand_mshr_miss_rate::total       0.174602                       # mshr miss rate for demand accesses
system.l2.overall_mshr_miss_rate::.cpu.inst     0.099274                       # mshr miss rate for overall accesses
system.l2.overall_mshr_miss_rate::.cpu.data     0.224617                       # mshr miss rate for overall accesses
system.l2.overall_mshr_miss_rate::total      0.174602                       # mshr miss rate for overall accesses
system.l2.demand_avg_mshr_miss_latency::.cpu.inst 77740.091463                       # average overall mshr miss latency
system.l2.demand_avg_mshr_miss_latency::.cpu.data 79925.296354                       # average overall mshr miss latency
system.l2.demand_avg_mshr_miss_latency::total 79429.534844                       # average overall mshr miss latency
system.l2.overall_avg_mshr_miss_latency::.cpu.inst 77740.091463                       # average overall mshr miss latency
system.l2.overall_avg_mshr_miss_latency::.cpu.data 79925.296354                       # average overall mshr miss latency
system.l2.overall_avg_mshr_miss_latency::total 79429.534844                       # average overall mshr miss latency
system.l2.replacements                              0                       # number of replacements
system.l2.WritebackDirty_hits::.writebacks        16756                       # number of WritebackDirty hits
system.l2.WritebackDirty_hits::total            16756                       # number of WritebackDirty hits
system.l2.WritebackDirty_accesses::.writebacks        16756                       # number of WritebackDirty accesses(hits+misses)
system.l2.WritebackDirty_accesses::total        16756                       # number of WritebackDirty accesses(hits+misses)
system.l2.WritebackClean_hits::.writebacks        11927                       # number of WritebackClean hits
system.l2.WritebackClean_hits::total            11927                       # number of WritebackClean hits
system.l2.WritebackClean_accesses::.writebacks        11927                       # number of WritebackClean accesses(hits+misses)
system.l2.WritebackClean_accesses::total        11927                       # number of WritebackClean accesses(hits+misses)
system.l2.ReadExReq_hits::.cpu.data             12085                       # number of ReadExReq hits
system.l2.ReadExReq_hits::total                 12085                       # number of ReadExReq hits
system.l2.ReadExReq_misses::.cpu.data            3669                       # number of ReadExReq misses
system.l2.ReadExReq_misses::total                3669                       # number of ReadExReq misses
system.l2.ReadExReq_miss_latency::.cpu.data    365398000                       # number of ReadExReq miss cycles
system.l2.ReadExReq_miss_latency::total     365398000                       # number of ReadExReq miss cycles
system.l2.ReadExReq_accesses::.cpu.data         15754                       # number of ReadExReq accesses(hits+misses)
system.l2.ReadExReq_accesses::total             15754                       # number of ReadExReq accesses(hits+misses)
system.l2.ReadExReq_miss_rate::.cpu.data     0.232893                       # miss rate for ReadExReq accesses
system.l2.ReadExReq_miss_rate::total         0.232893                       # miss rate for ReadExReq accesses
system.l2.ReadExReq_avg_miss_latency::.cpu.data 99590.624148                       # average ReadExReq miss latency
system.l2.ReadExReq_avg_miss_latency::total 99590.624148                       # average ReadExReq miss latency
system.l2.ReadExReq_mshr_misses::.cpu.data         3669                       # number of ReadExReq MSHR misses
system.l2.ReadExReq_mshr_misses::total           3669                       # number of ReadExReq MSHR misses
system.l2.ReadExReq_mshr_miss_latency::.cpu.data    292018000                       # number of ReadExReq MSHR miss cycles
system.l2.ReadExReq_mshr_miss_latency::total    292018000                       # number of ReadExReq MSHR miss cycles
system.l2.ReadExReq_mshr_miss_rate::.cpu.data     0.232893                       # mshr miss rate for ReadExReq accesses
system.l2.ReadExReq_mshr_miss_rate::total     0.232893                       # mshr miss rate for ReadExReq accesses
system.l2.ReadExReq_avg_mshr_miss_latency::.cpu.data 79590.624148                       # average ReadExReq mshr miss latency
system.l2.ReadExReq_avg_mshr_miss_latency::total 79590.624148                       # average ReadExReq mshr miss latency
system.l2.ReadCleanReq_hits::.cpu.inst          11902                       # number of ReadCleanReq hits
system.l2.ReadCleanReq_hits::total              11902                       # number of ReadCleanReq hits
system.l2.ReadCleanReq_misses::.cpu.inst         1314                       # number of ReadCleanReq misses
system.l2.ReadCleanReq_misses::total             1314                       # number of ReadCleanReq misses
system.l2.ReadCleanReq_miss_latency::.cpu.inst    128398000                       # number of ReadCleanReq miss cycles
system.l2.ReadCleanReq_miss_latency::total    128398000                       # number of ReadCleanReq miss cycles
system.l2.ReadCleanReq_accesses::.cpu.inst        13216                       # number of ReadCleanReq accesses(hits+misses)
system.l2.ReadCleanReq_accesses::total          13216                       # number of ReadCleanReq accesses(hits+misses)
system.l2.ReadCleanReq_miss_rate::.cpu.inst     0.099425                       # miss rate for ReadCleanReq accesses
system.l2.ReadCleanReq_miss_rate::total      0.099425                       # miss rate for ReadCleanReq accesses
system.l2.ReadCleanReq_avg_miss_latency::.cpu.inst 97715.372907                       # average ReadCleanReq miss latency
system.l2.ReadCleanReq_avg_miss_latency::total 97715.372907                       # average ReadCleanReq miss latency
system.l2.ReadCleanReq_mshr_hits::.cpu.inst            2                       # number of ReadCleanReq MSHR hits
system.l2.ReadCleanReq_mshr_hits::total             2                       # number of ReadCleanReq MSHR hits
system.l2.ReadCleanReq_mshr_misses::.cpu.inst         1312                       # number of ReadCleanReq MSHR misses
system.l2.ReadCleanReq_mshr_misses::total         1312                       # number of ReadCleanReq MSHR misses
system.l2.ReadCleanReq_mshr_miss_latency::.cpu.inst    101995000                       # number of ReadCleanReq MSHR miss cycles
system.l2.ReadCleanReq_mshr_miss_latency::total    101995000                       # number of ReadCleanReq MSHR miss cycles
system.l2.ReadCleanReq_mshr_miss_rate::.cpu.inst     0.099274                       # mshr miss rate for ReadCleanReq accesses
system.l2.ReadCleanReq_mshr_miss_rate::total     0.099274                       # mshr miss rate for ReadCleanReq accesses
system.l2.ReadCleanReq_avg_mshr_miss_latency::.cpu.inst 77740.091463                       # average ReadCleanReq mshr miss latency
system.l2.ReadCleanReq_avg_mshr_miss_latency::total 77740.091463                       # average ReadCleanReq mshr miss latency
system.l2.ReadSharedReq_hits::.cpu.data          3341                       # number of ReadSharedReq hits
system.l2.ReadSharedReq_hits::total              3341                       # number of ReadSharedReq hits
system.l2.ReadSharedReq_misses::.cpu.data          810                       # number of ReadSharedReq misses
system.l2.ReadSharedReq_misses::total             810                       # number of ReadSharedReq misses
system.l2.ReadSharedReq_miss_latency::.cpu.data     81980000                       # number of ReadSharedReq miss cycles
system.l2.ReadSharedReq_miss_latency::total     81980000                       # number of ReadSharedReq miss cycles
system.l2.ReadSharedReq_accesses::.cpu.data         4151                       # number of ReadSharedReq accesses(hits+misses)
system.l2.ReadSharedReq_accesses::total          4151                       # number of ReadSharedReq accesses(hits+misses)
system.l2.ReadSharedReq_miss_rate::.cpu.data     0.195134                       # miss rate for ReadSharedReq accesses
system.l2.ReadSharedReq_miss_rate::total     0.195134                       # miss rate for ReadSharedReq accesses
system.l2.ReadSharedReq_avg_miss_latency::.cpu.data 101209.876543                       # average ReadSharedReq miss latency
system.l2.ReadSharedReq_avg_miss_latency::total 101209.876543                       # average ReadSharedReq miss latency
system.l2.ReadSharedReq_mshr_hits::.cpu.data            8                       # number of ReadSharedReq MSHR hits
system.l2.ReadSharedReq_mshr_hits::total            8                       # number of ReadSharedReq MSHR hits
system.l2.ReadSharedReq_mshr_misses::.cpu.data          802                       # number of ReadSharedReq MSHR misses
system.l2.ReadSharedReq_mshr_misses::total          802                       # number of ReadSharedReq MSHR misses
system.l2.ReadSharedReq_mshr_miss_latency::.cpu.data     65328000                       # number of ReadSharedReq MSHR miss cycles
system.l2.ReadSharedReq_mshr_miss_latency::total     65328000                       # number of ReadSharedReq MSHR miss cycles
system.l2.ReadSharedReq_mshr_miss_rate::.cpu.data     0.193206                       # mshr miss rate for ReadSharedReq accesses
system.l2.ReadSharedReq_mshr_miss_rate::total     0.193206                       # mshr miss rate for ReadSharedReq accesses
system.l2.ReadSharedReq_avg_mshr_miss_latency::.cpu.data 81456.359102                       # average ReadSharedReq mshr miss latency
system.l2.ReadSharedReq_avg_mshr_miss_latency::total 81456.359102                       # average ReadSharedReq mshr miss latency
system.l2.tags.pwrStateResidencyTicks::UNDEFINED 118327896000                       # Cumulative time (in ticks) in various power states
system.l2.tags.tagsinuse                  5569.705328                       # Cycle average of tags in use
system.l2.tags.total_refs                       62742                       # Total number of references to valid blocks.
system.l2.tags.sampled_refs                      5783                       # Sample count of references to valid blocks.
system.l2.tags.avg_refs                     10.849386                       # Average number of references to valid blocks.
system.l2.tags.warmup_cycle                     87000                       # Cycle when the warmup percentage was hit.
system.l2.tags.occ_blocks::.cpu.inst      1304.129479                       # Average occupied blocks per requestor
system.l2.tags.occ_blocks::.cpu.data      4265.575849                       # Average occupied blocks per requestor
system.l2.tags.occ_percent::.cpu.inst        0.039799                       # Average percentage of cache occupancy
system.l2.tags.occ_percent::.cpu.data        0.130175                       # Average percentage of cache occupancy
system.l2.tags.occ_percent::total            0.169974                       # Average percentage of cache occupancy
system.l2.tags.occ_task_id_blocks::1024          5783                       # Occupied blocks per task id
system.l2.tags.age_task_id_blocks_1024::3            1                       # Occupied blocks per task id
system.l2.tags.age_task_id_blocks_1024::4         5782                       # Occupied blocks per task id
system.l2.tags.occ_task_id_percent::1024     0.176483                       # Percentage of cache occupancy per task id
system.l2.tags.tag_accesses                    507799                       # Number of tag accesses
system.l2.tags.data_accesses                   507799                       # Number of data accesses
system.cpu_voltage_domain.voltage                   1                       # Voltage in Volts
system.mem_ctrls.pwrStateResidencyTicks::UNDEFINED 118327896000                       # Cumulative time (in ticks) in various power states
system.mem_ctrls.bytes_read::.cpu.inst          83968                       # Number of bytes read from this memory
system.mem_ctrls.bytes_read::.cpu.data         286144                       # Number of bytes read from this memory
system.mem_ctrls.bytes_read::total             370112                       # Number of bytes read from this memory
system.mem_ctrls.bytes_inst_read::.cpu.inst        83968                       # Number of instructions bytes read from this memory
system.mem_ctrls.bytes_inst_read::total         83968                       # Number of instructions bytes read from this memory
system.mem_ctrls.num_reads::.cpu.inst            1312                       # Number of read requests responded to by this memory
system.mem_ctrls.num_reads::.cpu.data            4471                       # Number of read requests responded to by this memory
system.mem_ctrls.num_reads::total                5783                       # Number of read requests responded to by this memory
system.mem_ctrls.bw_read::.cpu.inst            709621                       # Total read bandwidth from this memory (bytes/s)
system.mem_ctrls.bw_read::.cpu.data           2418229                       # Total read bandwidth from this memory (bytes/s)
system.mem_ctrls.bw_read::total               3127851                       # Total read bandwidth from this memory (bytes/s)
system.mem_ctrls.bw_inst_read::.cpu.inst       709621                       # Instruction read bandwidth from this memory (bytes/s)
system.mem_ctrls.bw_inst_read::total           709621                       # Instruction read bandwidth from this memory (bytes/s)
system.mem_ctrls.bw_total::.cpu.inst           709621                       # Total bandwidth to/from this memory (bytes/s)
system.mem_ctrls.bw_total::.cpu.data          2418229                       # Total bandwidth to/from this memory (bytes/s)
system.mem_ctrls.bw_total::total              3127851                       # Total bandwidth to/from this memory (bytes/s)
system.mem_ctrls.avgPriority_.cpu.inst::samples      1312.00                       # Average QoS priority value for accepted requests
system.mem_ctrls.avgPriority_.cpu.data::samples      4471.00                       # Average QoS priority value for accepted requests
system.mem_ctrls.priorityMinLatency      0.000000018750                       # per QoS priority minimum request to response latency (s)
system.mem_ctrls.priorityMaxLatency      0.000000577000                       # per QoS priority maximum request to response latency (s)
system.mem_ctrls.numReadWriteTurnArounds            0                       # Number of turnarounds from READ to WRITE
system.mem_ctrls.numWriteReadTurnArounds            0                       # Number of turnarounds from WRITE to READ
system.mem_ctrls.numStayReadState               41951                       # Number of times bus staying in READ state
system.mem_ctrls.numStayWriteState                  0                       # Number of times bus staying in WRITE state
system.mem_ctrls.readReqs                        5783                       # Number of read requests accepted
system.mem_ctrls.writeReqs                          0                       # Number of write requests accepted
system.mem_ctrls.readBursts                      5783                       # Number of DRAM read bursts, including those serviced by the write queue
system.mem_ctrls.writeBursts                        0                       # Number of DRAM write bursts, including those merged in the write queue
system.mem_ctrls.servicedByWrQ                      0                       # Number of DRAM read bursts serviced by the write queue
system.mem_ctrls.mergedWrBursts                     0                       # Number of DRAM write bursts merged with an existing one
system.mem_ctrls.neitherReadNorWriteReqs            0                       # Number of requests that are neither read nor write
system.mem_ctrls.perBankRdBursts::0               360                       # Per bank write bursts
system.mem_ctrls.perBankRdBursts::1               320                       # Per bank write bursts
system.mem_ctrls.perBankRdBursts::2               341                       # Per bank write bursts
system.mem_ctrls.perBankRdBursts::3               324                       # Per bank write bursts
system.mem_ctrls.perBankRdBursts::4               322                       # Per bank write bursts
system.mem_ctrls.perBankRdBursts::5               538                       # Per bank write bursts
system.mem_ctrls.perBankRdBursts::6               361                       # Per bank write bursts
system.mem_ctrls.perBankRdBursts::7               447                       # Per bank write bursts
system.mem_ctrls.perBankRdBursts::8               277                       # Per bank write bursts
system.mem_ctrls.perBankRdBursts::9               338                       # Per bank write bursts
system.mem_ctrls.perBankRdBursts::10              395                       # Per bank write bursts
system.mem_ctrls.perBankRdBursts::11              385                       # Per bank write bursts
system.mem_ctrls.perBankRdBursts::12              419                       # Per bank write bursts
system.mem_ctrls.perBankRdBursts::13              349                       # Per bank write bursts
system.mem_ctrls.perBankRdBursts::14              308                       # Per bank write bursts
system.mem_ctrls.perBankRdBursts::15              299                       # Per bank write bursts
system.mem_ctrls.perBankWrBursts::0                 0                       # Per bank write bursts
system.mem_ctrls.perBankWrBursts::1                 0                       # Per bank write bursts
system.mem_ctrls.perBankWrBursts::2                 0                       # Per bank write bursts
system.mem_ctrls.perBankWrBursts::3                 0                       # Per bank write bursts
system.mem_ctrls.perBankWrBursts::4                 0                       # Per bank write bursts
system.mem_ctrls.perBankWrBursts::5                 0                       # Per bank write bursts
system.mem_ctrls.perBankWrBursts::6                 0                       # Per bank write bursts
system.mem_ctrls.perBankWrBursts::7                 0                       # Per bank write bursts
system.mem_ctrls.perBankWrBursts::8                 0                       # Per bank write bursts
system.mem_ctrls.perBankWrBursts::9                 0                       # Per bank write bursts
system.mem_ctrls.perBankWrBursts::10                0                       # Per bank write bursts
system.mem_ctrls.perBankWrBursts::11                0                       # Per bank write bursts
system.mem_ctrls.perBankWrBursts::12                0                       # Per bank write bursts
system.mem_ctrls.perBankWrBursts::13                0                       # Per bank write bursts
system.mem_ctrls.perBankWrBursts::14                0                       # Per bank write bursts
system.mem_ctrls.perBankWrBursts::15                0                       # Per bank write bursts
system.mem_ctrls.avgRdQLen                       1.01                       # Average read queue length when enqueuing
system.mem_ctrls.avgWrQLen                       0.00                       # Average write queue length when enqueuing
system.mem_ctrls.totQLat                     54014250                       # Total ticks spent queuing
system.mem_ctrls.totBusLat                   28915000                       # Total ticks spent in databus transfers
system.mem_ctrls.totMemAccLat               162445500                       # Total ticks spent from burst creation until serviced by the DRAM
system.mem_ctrls.avgQLat                      9340.18                       # Average queueing delay per DRAM burst
system.mem_ctrls.avgBusLat                    5000.00                       # Average bus latency per DRAM burst
system.mem_ctrls.avgMemAccLat                28090.18                       # Average memory access latency per DRAM burst
system.mem_ctrls.numRdRetry                         0                       # Number of times read queue was full causing retry
system.mem_ctrls.numWrRetry                         0                       # Number of times write queue was full causing retry
system.mem_ctrls.readRowHits                     3873                       # Number of row buffer hits during reads
system.mem_ctrls.writeRowHits                       0                       # Number of row buffer hits during writes
system.mem_ctrls.readRowHitRate                 66.97                       # Row buffer hit rate for reads
system.mem_ctrls.writeRowHitRate                  nan                       # Row buffer hit rate for writes
system.mem_ctrls.readPktSize::0                     0                       # Read request sizes (log2)
system.mem_ctrls.readPktSize::1                     0                       # Read request sizes (log2)
system.mem_ctrls.readPktSize::2                     0                       # Read request sizes (log2)
system.mem_ctrls.readPktSize::3                     0                       # Read request sizes (log2)
system.mem_ctrls.readPktSize::4                     0                       # Read request sizes (log2)
system.mem_ctrls.readPktSize::5                     0                       # Read request sizes (log2)
system.mem_ctrls.readPktSize::6                  5783                       # Read request sizes (log2)
system.mem_ctrls.writePktSize::0                    0                       # Write request sizes (log2)
system.mem_ctrls.writePktSize::1                    0                       # Write request sizes (log2)
system.mem_ctrls.writePktSize::2                    0                       # Write request sizes (log2)
system.mem_ctrls.writePktSize::3                    0                       # Write request sizes (log2)
system.mem_ctrls.writePktSize::4                    0                       # Write request sizes (log2)
system.mem_ctrls.writePktSize::5                    0                       # Write request sizes (log2)
system.mem_ctrls.writePktSize::6                    0                       # Write request sizes (log2)
system.mem_ctrls.rdQLenPdf::0                    5381                       # What read queue length does an incoming req see
system.mem_ctrls.rdQLenPdf::1                     388                       # What read queue length does an incoming req see
system.mem_ctrls.rdQLenPdf::2                      13                       # What read queue length does an incoming req see
system.mem_ctrls.rdQLenPdf::3                       1                       # What read queue length does an incoming req see
system.mem_ctrls.rdQLenPdf::4                       0                       # What read queue length does an incoming req see
system.mem_ctrls.rdQLenPdf::5                       0                       # What read queue length does an incoming req see
system.mem_ctrls.rdQLenPdf::6                       0                       # What read queue length does an incoming req see
system.mem_ctrls.rdQLenPdf::7                       0                       # What read queue length does an incoming req see
system.mem_ctrls.rdQLenPdf::8                       0                       # What read queue length does an incoming req see
system.mem_ctrls.rdQLenPdf::9                       0                       # What read queue length does an incoming req see
system.mem_ctrls.rdQLenPdf::10                      0                       # What read queue length does an incoming req see
system.mem_ctrls.rdQLenPdf::11                      0                       # What read queue length does an incoming req see
system.mem_ctrls.rdQLenPdf::12                      0                       # What read queue length does an incoming req see
system.mem_ctrls.rdQLenPdf::13                      0                       # What read queue length does an incoming req see
system.mem_ctrls.rdQLenPdf::14                      0                       # What read queue length does an incoming req see
system.mem_ctrls.rdQLenPdf::15                      0                       # What read queue length does an incoming req see
system.mem_ctrls.rdQLenPdf::16                      0                       # What read queue length does an incoming req see
system.mem_ctrls.rdQLenPdf::17                      0                       # What read queue length does an incoming req see
system.mem_ctrls.rdQLenPdf::18                      0                       # What read queue length does an incoming req see
system.mem_ctrls.rdQLenPdf::19                      0                       # What read queue length does an incoming req see
system.mem_ctrls.rdQLenPdf::20                      0                       # What read queue length does an incoming req see
system.mem_ctrls.rdQLenPdf::21                      0                       # What read queue length does an incoming req see
system.mem_ctrls.rdQLenPdf::22                      0                       # What read queue length does an incoming req see
system.mem_ctrls.rdQLenPdf::23                      0                       # What read queue length does an incoming req see
system.mem_ctrls.rdQLenPdf::24                      0                       # What read queue length does an incoming req see
system.mem_ctrls.rdQLenPdf::25                      0                       # What read queue length does an incoming req see
system.mem_ctrls.rdQLenPdf::26                      0                       # What read queue length does an incoming req see
system.mem_ctrls.rdQLenPdf::27                      0                       # What read queue length does an incoming req see
system.mem_ctrls.rdQLenPdf::28                      0                       # What read queue length does an incoming req see
system.mem_ctrls.rdQLenPdf::29                      0                       # What read queue length does an incoming req see
system.mem_ctrls.rdQLenPdf::30                      0                       # What read queue length does an incoming req see
system.mem_ctrls.rdQLenPdf::31                      0                       # What read queue length does an incoming req see
system.mem_ctrls.wrQLenPdf::0                       0                       # What write queue length does an incoming req see
system.mem_ctrls.wrQLenPdf::1                       0                       # What write queue length does an incoming req see
system.mem_ctrls.wrQLenPdf::2                       0                       # What write queue length does an incoming req see
system.mem_ctrls.wrQLenPdf::3                       0                       # What write queue length does an incoming req see
system.mem_ctrls.wrQLenPdf::4                       0                       # What write queue length does an incoming req see
system.mem_ctrls.wrQLenPdf::5                       0                       # What write queue length does an incoming req see
system.mem_ctrls.wrQLenPdf::6                       0                       # What write queue length does an incoming req see
system.mem_ctrls.wrQLenPdf::7                       0                       # What write queue length does an incoming req see
system.mem_ctrls.wrQLenPdf::8                       0                       # What write queue length does an incoming req see
system.mem_ctrls.wrQLenPdf::9                       0                       # What write queue length does an incoming req see
system.mem_ctrls.wrQLenPdf::10                      0                       # What write queue length does an incoming req see
system.mem_ctrls.wrQLenPdf::11                      0                       # What write queue length does an incoming req see
system.mem_ctrls.wrQLenPdf::12                      0                       # What write queue length does an incoming req see
system.mem_ctrls.wrQLenPdf::13                      0                       # What write queue length does an incoming req see
system.mem_ctrls.wrQLenPdf::14                      0                       # What write queue length does an incoming req see
system.mem_ctrls.wrQLenPdf::15                      0                       # What write queue length does an incoming req see
system.mem_ctrls.wrQLenPdf::16                      0                       # What write queue length does an incoming req see
system.mem_ctrls.wrQLenPdf::17                      0                       # What write queue length does an incoming req see
system.mem_ctrls.wrQLenPdf::18                      0                       # What write queue length does an incoming req see
system.mem_ctrls.wrQLenPdf::19                      0                       # What write queue length does an incoming req see
system.mem_ctrls.wrQLenPdf::20                      0                       # What write queue length does an incoming req see
system.mem_ctrls.wrQLenPdf::21                      0                       # What write queue length does an incoming req see
system.mem_ctrls.wrQLenPdf::22                      0                       # What write queue length does an incoming req see
system.mem_ctrls.wrQLenPdf::23                      0                       # What write queue length does an incoming req see
system.mem_ctrls.wrQLenPdf::24                      0                       # What write queue length does an incoming req see
system.mem_ctrls.wrQLenPdf::25                      0                       # What write queue length does an incoming req see
system.mem_ctrls.wrQLenPdf::26                      0                       # What write queue length does an incoming req see
system.mem_ctrls.wrQLenPdf::27                      0                       # What write queue length does an incoming req see
system.mem_ctrls.wrQLenPdf::28                      0                       # What write queue length does an incoming req see
system.mem_ctrls.wrQLenPdf::29                      0                       # What write queue length does an incoming req see
system.mem_ctrls.wrQLenPdf::30                      0                       # What write queue length does an incoming req see
system.mem_ctrls.wrQLenPdf::31                      0                       # What write queue length does an incoming req see
system.mem_ctrls.wrQLenPdf::32                      0                       # What write queue length does an incoming req see
system.mem_ctrls.wrQLenPdf::33                      0                       # What write queue length does an incoming req see
system.mem_ctrls.wrQLenPdf::34                      0                       # What write queue length does an incoming req see
system.mem_ctrls.wrQLenPdf::35                      0                       # What write queue length does an incoming req see
system.mem_ctrls.wrQLenPdf::36                      0                       # What write queue length does an incoming req see
system.mem_ctrls.wrQLenPdf::37                      0                       # What write queue length does an incoming req see
system.mem_ctrls.wrQLenPdf::38                      0                       # What write queue length does an incoming req see
system.mem_ctrls.wrQLenPdf::39                      0                       # What write queue length does an incoming req see
system.mem_ctrls.wrQLenPdf::40                      0                       # What write queue length does an incoming req see
system.mem_ctrls.wrQLenPdf::41                      0                       # What write queue length does an incoming req see
system.mem_ctrls.wrQLenPdf::42                      0                       # What write queue length does an incoming req see
system.mem_ctrls.wrQLenPdf::43                      0                       # What write queue length does an incoming req see
system.mem_ctrls.wrQLenPdf::44                      0                       # What write queue length does an incoming req see
system.mem_ctrls.wrQLenPdf::45                      0                       # What write queue length does an incoming req see
system.mem_ctrls.wrQLenPdf::46                      0                       # What write queue length does an incoming req see
system.mem_ctrls.wrQLenPdf::47                      0                       # What write queue length does an incoming req see
system.mem_ctrls.wrQLenPdf::48                      0                       # What write queue length does an incoming req see
system.mem_ctrls.wrQLenPdf::49                      0                       # What write queue length does an incoming req see
system.mem_ctrls.wrQLenPdf::50                      0                       # What write queue length does an incoming req see
system.mem_ctrls.wrQLenPdf::51                      0                       # What write queue length does an incoming req see
system.mem_ctrls.wrQLenPdf::52                      0                       # What write queue length does an incoming req see
system.mem_ctrls.wrQLenPdf::53                      0                       # What write queue length does an incoming req see
system.mem_ctrls.wrQLenPdf::54                      0                       # What write queue length does an incoming req see
system.mem_ctrls.wrQLenPdf::55                      0                       # What write queue length does an incoming req see
system.mem_ctrls.wrQLenPdf::56                      0                       # What write queue length does an incoming req see
system.mem_ctrls.wrQLenPdf::57                      0                       # What write queue length does an incoming req see
system.mem_ctrls.wrQLenPdf::58                      0                       # What write queue length does an incoming req see
system.mem_ctrls.wrQLenPdf::59                      0                       # What write queue length does an incoming req see
system.mem_ctrls.wrQLenPdf::60                      0                       # What write queue length does an incoming req see
system.mem_ctrls.wrQLenPdf::61                      0                       # What write queue length does an incoming req see
system.mem_ctrls.wrQLenPdf::62                      0                       # What write queue length does an incoming req see
system.mem_ctrls.wrQLenPdf::63                      0                       # What write queue length does an incoming req see
system.mem_ctrls.bytesPerActivate::samples         1910                       # Bytes accessed per row activation
system.mem_ctrls.bytesPerActivate::mean    193.775916                       # Bytes accessed per row activation
system.mem_ctrls.bytesPerActivate::gmean   124.675227                       # Bytes accessed per row activation
system.mem_ctrls.bytesPerActivate::stdev   249.727361                       # Bytes accessed per row activation
system.mem_ctrls.bytesPerActivate::0-127          838     43.87%     43.87% # Bytes accessed per row activation
system.mem_ctrls.bytesPerActivate::128-255          727     38.06%     81.94% # Bytes accessed per row activation
system.mem_ctrls.bytesPerActivate::256-383          112      5.86%     87.80% # Bytes accessed per row activation
system.mem_ctrls.bytesPerActivate::384-511           35      1.83%     89.63% # Bytes accessed per row activation
system.mem_ctrls.bytesPerActivate::512-639           38      1.99%     91.62% # Bytes accessed per row activation
system.mem_ctrls.bytesPerActivate::640-767           12      0.63%     92.25% # Bytes accessed per row activation
system.mem_ctrls.bytesPerActivate::768-895           23      1.20%     93.46% # Bytes accessed per row activation
system.mem_ctrls.bytesPerActivate::896-1023           18      0.94%     94.40% # Bytes accessed per row activation
system.mem_ctrls.bytesPerActivate::1024-1151          107      5.60%    100.00% # Bytes accessed per row activation
system.mem_ctrls.bytesPerActivate::total         1910                       # Bytes accessed per row activation
system.mem_ctrls.bytesReadDRAM                 370112                       # Total number of bytes read from DRAM
system.mem_ctrls.bytesReadWrQ                       0                       # Total number of bytes read from write queue
system.mem_ctrls.bytesWritten                       0                       # Total number of bytes written to DRAM
system.mem_ctrls.bytesReadSys                  370112                       # Total read bytes from the system interface side
system.mem_ctrls.bytesWrittenSys                    0                       # Total written bytes from the system interface side
system.mem_ctrls.avgRdBW                         3.13                       # Average DRAM read bandwidth in MiByte/s
system.mem_ctrls.avgWrBW                         0.00                       # Average achieved write bandwidth in MiByte/s
system.mem_ctrls.avgRdBWSys                      3.13                       # Average system read bandwidth in MiByte/s
system.mem_ctrls.avgWrBWSys                      0.00                       # Average system write bandwidth in MiByte/s
system.mem_ctrls.peakBW                      12800.00                       # Theoretical peak bandwidth in MiByte/s
system.mem_ctrls.busUtil                         0.02                       # Data bus utilization in percentage
system.mem_ctrls.busUtilRead                     0.02                       # Data bus utilization in percentage for reads
system.mem_ctrls.busUtilWrite                    0.00                       # Data bus utilization in percentage for writes
system.mem_ctrls.totGap                  111839392000                       # Total gap between requests
system.mem_ctrls.avgGap                   19339338.06                       # Average gap between requests
system.mem_ctrls.masterReadBytes::.cpu.inst        83968                       # Per-master bytes read from memory
system.mem_ctrls.masterReadBytes::.cpu.data       286144                       # Per-master bytes read from memory
system.mem_ctrls.masterReadRate::.cpu.inst 709621.338995159720                       # Per-master bytes read from memory rate (Bytes/sec)
system.mem_ctrls.masterReadRate::.cpu.data 2418229.425798291806                       # Per-master bytes read from memory rate (Bytes/sec)
system.mem_ctrls.masterReadAccesses::.cpu.inst         1312                       # Per-master read serviced memory accesses
system.mem_ctrls.masterReadAccesses::.cpu.data         4471                       # Per-master read serviced memory accesses
system.mem_ctrls.masterReadTotalLat::.cpu.inst     34665000                       # Per-master read total memory access latency
system.mem_ctrls.masterReadTotalLat::.cpu.data    127780500                       # Per-master read total memory access latency
system.mem_ctrls.masterReadAvgLat::.cpu.inst     26421.49                       # Per-master read average memory access latency
system.mem_ctrls.masterReadAvgLat::.cpu.data     28579.85                       # Per-master read average memory access latency
system.mem_ctrls.pageHitRate                    66.97                       # Row buffer hit rate, read and write combined
[...]
system.cpu.icache.tags.occ_percent::total     0.999814                       # Average percentage of cache occupancy
system.cpu.icache.tags.occ_task_id_blocks::1024          256                       # Occupied blocks per task id
system.cpu.icache.tags.age_task_id_blocks_1024::2           18                       # Occupied blocks per task id
system.cpu.icache.tags.age_task_id_blocks_1024::3           46                       # Occupied blocks per task id
system.cpu.icache.tags.age_task_id_blocks_1024::4          192                       # Occupied blocks per task id
system.cpu.icache.tags.occ_task_id_percent::1024            1                       # Percentage of cache occupancy per task id
system.cpu.icache.tags.tag_accesses          34287318                       # Number of tag accesses
system.cpu.icache.tags.data_accesses         34287318                       # Number of data accesses
system.cpu.dtb.walker.pwrStateResidencyTicks::UNDEFINED 118327896000                       # Cumulative time (in ticks) in various power states
system.cpu.dtb.stage2_mmu.stage2_tlb.walker.pwrStateResidencyTicks::UNDEFINED 118327896000                       # Cumulative time (in ticks) in various power states
system.cpu.dcache.pwrStateResidencyTicks::UNDEFINED 118327896000                       # Cumulative time (in ticks) in various power states
system.cpu.dcache.demand_hits::.cpu.data     43845822                       # number of demand (read+write) hits
system.cpu.dcache.demand_hits::total         43845822                       # number of demand (read+write) hits
system.cpu.dcache.overall_hits::.cpu.data     43854410                       # number of overall hits
system.cpu.dcache.overall_hits::total        43854410                       # number of overall hits
system.cpu.dcache.demand_misses::.cpu.data        23924                       # number of demand (read+write) misses
system.cpu.dcache.demand_misses::total          23924                       # number of demand (read+write) misses
system.cpu.dcache.overall_misses::.cpu.data        24030                       # number of overall misses
system.cpu.dcache.overall_misses::total         24030                       # number of overall misses
system.cpu.dcache.demand_miss_latency::.cpu.data   1122653000                       # number of demand (read+write) miss cycles
system.cpu.dcache.demand_miss_latency::total   1122653000                       # number of demand (read+write) miss cycles
system.cpu.dcache.overall_miss_latency::.cpu.data   1122653000                       # number of overall miss cycles
system.cpu.dcache.overall_miss_latency::total   1122653000                       # number of overall miss cycles
system.cpu.dcache.demand_accesses::.cpu.data     43869746                       # number of demand (read+write) accesses
system.cpu.dcache.demand_accesses::total     43869746                       # number of demand (read+write) accesses
system.cpu.dcache.overall_accesses::.cpu.data     43878440                       # number of overall (read+write) accesses
system.cpu.dcache.overall_accesses::total     43878440                       # number of overall (read+write) accesses
system.cpu.dcache.demand_miss_rate::.cpu.data     0.000545                       # miss rate for demand accesses
system.cpu.dcache.demand_miss_rate::total     0.000545                       # miss rate for demand accesses
system.cpu.dcache.overall_miss_rate::.cpu.data     0.000548                       # miss rate for overall accesses
system.cpu.dcache.overall_miss_rate::total     0.000548                       # miss rate for overall accesses
system.cpu.dcache.demand_avg_miss_latency::.cpu.data 46925.806721                       # average overall miss latency
system.cpu.dcache.demand_avg_miss_latency::total 46925.806721                       # average overall miss latency
system.cpu.dcache.overall_avg_miss_latency::.cpu.data 46718.809821                       # average overall miss latency
system.cpu.dcache.overall_avg_miss_latency::total 46718.809821                       # average overall miss latency
system.cpu.dcache.blocked_cycles::no_mshrs          138                       # number of cycles access was blocked
system.cpu.dcache.blocked_cycles::no_targets            0                       # number of cycles access was blocked
system.cpu.dcache.blocked::no_mshrs                 2                       # number of cycles access was blocked
system.cpu.dcache.blocked::no_targets               0                       # number of cycles access was blocked
system.cpu.dcache.avg_blocked_cycles::no_mshrs           69                       # average number of cycles each access was blocked
system.cpu.dcache.avg_blocked_cycles::no_targets          nan                       # average number of cycles each access was blocked
system.cpu.dcache.writebacks::.writebacks        16756                       # number of writebacks
system.cpu.dcache.writebacks::total             16756                       # number of writebacks
system.cpu.dcache.demand_mshr_hits::.cpu.data         4113                       # number of demand (read+write) MSHR hits
system.cpu.dcache.demand_mshr_hits::total         4113                       # number of demand (read+write) MSHR hits
system.cpu.dcache.overall_mshr_hits::.cpu.data         4113                       # number of overall MSHR hits
system.cpu.dcache.overall_mshr_hits::total         4113                       # number of overall MSHR hits
system.cpu.dcache.demand_mshr_misses::.cpu.data        19811                       # number of demand (read+write) MSHR misses
system.cpu.dcache.demand_mshr_misses::total        19811                       # number of demand (read+write) MSHR misses
system.cpu.dcache.overall_mshr_misses::.cpu.data        19904                       # number of overall MSHR misses
system.cpu.dcache.overall_mshr_misses::total        19904                       # number of overall MSHR misses
system.cpu.dcache.demand_mshr_miss_latency::.cpu.data    822452000                       # number of demand (read+write) MSHR miss cycles
system.cpu.dcache.demand_mshr_miss_latency::total    822452000                       # number of demand (read+write) MSHR miss cycles
system.cpu.dcache.overall_mshr_miss_latency::.cpu.data    831366000                       # number of overall MSHR miss cycles
system.cpu.dcache.overall_mshr_miss_latency::total    831366000                       # number of overall MSHR miss cycles
system.cpu.dcache.demand_mshr_miss_rate::.cpu.data     0.000452                       # mshr miss rate for demand accesses
system.cpu.dcache.demand_mshr_miss_rate::total     0.000452                       # mshr miss rate for demand accesses
system.cpu.dcache.overall_mshr_miss_rate::.cpu.data     0.000454                       # mshr miss rate for overall accesses
system.cpu.dcache.overall_mshr_miss_rate::total     0.000454                       # mshr miss rate for overall accesses
system.cpu.dcache.demand_avg_mshr_miss_latency::.cpu.data 41514.915956                       # average overall mshr miss latency
system.cpu.dcache.demand_avg_mshr_miss_latency::total 41514.915956                       # average overall mshr miss latency
system.cpu.dcache.overall_avg_mshr_miss_latency::.cpu.data 41768.790193                       # average overall mshr miss latency
system.cpu.dcache.overall_avg_mshr_miss_latency::total 41768.790193                       # average overall mshr miss latency
system.cpu.dcache.replacements                  17857                       # number of replacements
system.cpu.dcache.ReadReq_hits::.cpu.data     37540645                       # number of ReadReq hits
system.cpu.dcache.ReadReq_hits::total        37540645                       # number of ReadReq hits
system.cpu.dcache.ReadReq_misses::.cpu.data         4207                       # number of ReadReq misses
system.cpu.dcache.ReadReq_misses::total          4207                       # number of ReadReq misses
system.cpu.dcache.ReadReq_miss_latency::.cpu.data    173883000                       # number of ReadReq miss cycles
system.cpu.dcache.ReadReq_miss_latency::total    173883000                       # number of ReadReq miss cycles
system.cpu.dcache.ReadReq_accesses::.cpu.data     37544852                       # number of ReadReq accesses(hits+misses)
system.cpu.dcache.ReadReq_accesses::total     37544852                       # number of ReadReq accesses(hits+misses)
system.cpu.dcache.ReadReq_miss_rate::.cpu.data     0.000112                       # miss rate for ReadReq accesses
system.cpu.dcache.ReadReq_miss_rate::total     0.000112                       # miss rate for ReadReq accesses
system.cpu.dcache.ReadReq_avg_miss_latency::.cpu.data 41331.827906                       # average ReadReq miss latency
system.cpu.dcache.ReadReq_avg_miss_latency::total 41331.827906                       # average ReadReq miss latency
system.cpu.dcache.ReadReq_mshr_hits::.cpu.data          150                       # number of ReadReq MSHR hits
system.cpu.dcache.ReadReq_mshr_hits::total          150                       # number of ReadReq MSHR hits
system.cpu.dcache.ReadReq_mshr_misses::.cpu.data         4057                       # number of ReadReq MSHR misses
system.cpu.dcache.ReadReq_mshr_misses::total         4057                       # number of ReadReq MSHR misses
system.cpu.dcache.ReadReq_mshr_miss_latency::.cpu.data    155998000                       # number of ReadReq MSHR miss cycles
system.cpu.dcache.ReadReq_mshr_miss_latency::total    155998000                       # number of ReadReq MSHR miss cycles
system.cpu.dcache.ReadReq_mshr_miss_rate::.cpu.data     0.000108                       # mshr miss rate for ReadReq accesses
system.cpu.dcache.ReadReq_mshr_miss_rate::total     0.000108                       # mshr miss rate for ReadReq accesses
system.cpu.dcache.ReadReq_avg_mshr_miss_latency::.cpu.data 38451.565196                       # average ReadReq mshr miss latency
system.cpu.dcache.ReadReq_avg_mshr_miss_latency::total 38451.565196                       # average ReadReq mshr miss latency
system.cpu.dcache.WriteReq_hits::.cpu.data      6305177                       # number of WriteReq hits
system.cpu.dcache.WriteReq_hits::total        6305177                       # number of WriteReq hits
system.cpu.dcache.WriteReq_misses::.cpu.data        19717                       # number of WriteReq misses
system.cpu.dcache.WriteReq_misses::total        19717                       # number of WriteReq misses
system.cpu.dcache.WriteReq_miss_latency::.cpu.data    948770000                       # number of WriteReq miss cycles
system.cpu.dcache.WriteReq_miss_latency::total    948770000                       # number of WriteReq miss cycles
system.cpu.dcache.WriteReq_accesses::.cpu.data      6324894                       # number of WriteReq accesses(hits+misses)
system.cpu.dcache.WriteReq_accesses::total      6324894                       # number of WriteReq accesses(hits+misses)
system.cpu.dcache.WriteReq_miss_rate::.cpu.data     0.003117                       # miss rate for WriteReq accesses
system.cpu.dcache.WriteReq_miss_rate::total     0.003117                       # miss rate for WriteReq accesses
system.cpu.dcache.WriteReq_avg_miss_latency::.cpu.data 48119.389359                       # average WriteReq miss latency
system.cpu.dcache.WriteReq_avg_miss_latency::total 48119.389359                       # average WriteReq miss latency
system.cpu.dcache.WriteReq_mshr_hits::.cpu.data         3963                       # number of WriteReq MSHR hits
system.cpu.dcache.WriteReq_mshr_hits::total         3963                       # number of WriteReq MSHR hits
system.cpu.dcache.WriteReq_mshr_misses::.cpu.data        15754                       # number of WriteReq MSHR misses
system.cpu.dcache.WriteReq_mshr_misses::total        15754                       # number of WriteReq MSHR misses
system.cpu.dcache.WriteReq_mshr_miss_latency::.cpu.data    666454000                       # number of WriteReq MSHR miss cycles
system.cpu.dcache.WriteReq_mshr_miss_latency::total    666454000                       # number of WriteReq MSHR miss cycles
system.cpu.dcache.WriteReq_mshr_miss_rate::.cpu.data     0.002491                       # mshr miss rate for WriteReq accesses
system.cpu.dcache.WriteReq_mshr_miss_rate::total     0.002491                       # mshr miss rate for WriteReq accesses
system.cpu.dcache.WriteReq_avg_mshr_miss_latency::.cpu.data 42303.795861                       # average WriteReq mshr miss latency
system.cpu.dcache.WriteReq_avg_mshr_miss_latency::total 42303.795861                       # average WriteReq mshr miss latency
system.cpu.dcache.SoftPFReq_hits::.cpu.data         8588                       # number of SoftPFReq hits
system.cpu.dcache.SoftPFReq_hits::total          8588                       # number of SoftPFReq hits
system.cpu.dcache.SoftPFReq_misses::.cpu.data          106                       # number of SoftPFReq misses
system.cpu.dcache.SoftPFReq_misses::total          106                       # number of SoftPFReq misses
system.cpu.dcache.SoftPFReq_accesses::.cpu.data         8694                       # number of SoftPFReq accesses(hits+misses)
system.cpu.dcache.SoftPFReq_accesses::total         8694                       # number of SoftPFReq accesses(hits+misses)
system.cpu.dcache.SoftPFReq_miss_rate::.cpu.data     0.012192                       # miss rate for SoftPFReq accesses
system.cpu.dcache.SoftPFReq_miss_rate::total     0.012192                       # miss rate for SoftPFReq accesses
system.cpu.dcache.SoftPFReq_mshr_misses::.cpu.data           93                       # number of SoftPFReq MSHR misses
system.cpu.dcache.SoftPFReq_mshr_misses::total           93                       # number of SoftPFReq MSHR misses
system.cpu.dcache.SoftPFReq_mshr_miss_latency::.cpu.data      8914000                       # number of SoftPFReq MSHR miss cycles
system.cpu.dcache.SoftPFReq_mshr_miss_latency::total      8914000                       # number of SoftPFReq MSHR miss cycles
system.cpu.dcache.SoftPFReq_mshr_miss_rate::.cpu.data     0.010697                       # mshr miss rate for SoftPFReq accesses
system.cpu.dcache.SoftPFReq_mshr_miss_rate::total     0.010697                       # mshr miss rate for SoftPFReq accesses
system.cpu.dcache.SoftPFReq_avg_mshr_miss_latency::.cpu.data 95849.462366                       # average SoftPFReq mshr miss latency
system.cpu.dcache.SoftPFReq_avg_mshr_miss_latency::total 95849.462366                       # average SoftPFReq mshr miss latency
system.cpu.dcache.LoadLockedReq_hits::.cpu.data          165                       # number of LoadLockedReq hits
system.cpu.dcache.LoadLockedReq_hits::total          165                       # number of LoadLockedReq hits
system.cpu.dcache.LoadLockedReq_misses::.cpu.data            1                       # number of LoadLockedReq misses
system.cpu.dcache.LoadLockedReq_misses::total            1                       # number of LoadLockedReq misses
system.cpu.dcache.LoadLockedReq_miss_latency::.cpu.data        95000                       # number of LoadLockedReq miss cycles
system.cpu.dcache.LoadLockedReq_miss_latency::total        95000                       # number of LoadLockedReq miss cycles
system.cpu.dcache.LoadLockedReq_accesses::.cpu.data          166                       # number of LoadLockedReq accesses(hits+misses)
system.cpu.dcache.LoadLockedReq_accesses::total          166                       # number of LoadLockedReq accesses(hits+misses)
system.cpu.dcache.LoadLockedReq_miss_rate::.cpu.data     0.006024                       # miss rate for LoadLockedReq accesses
system.cpu.dcache.LoadLockedReq_miss_rate::total     0.006024                       # miss rate for LoadLockedReq accesses
system.cpu.dcache.LoadLockedReq_avg_miss_latency::.cpu.data        95000                       # average LoadLockedReq miss latency
system.cpu.dcache.LoadLockedReq_avg_miss_latency::total        95000                       # average LoadLockedReq miss latency
system.cpu.dcache.LoadLockedReq_mshr_misses::.cpu.data            1                       # number of LoadLockedReq MSHR misses
system.cpu.dcache.LoadLockedReq_mshr_misses::total            1                       # number of LoadLockedReq MSHR misses
system.cpu.dcache.LoadLockedReq_mshr_miss_latency::.cpu.data        93000                       # number of LoadLockedReq MSHR miss cycles
system.cpu.dcache.LoadLockedReq_mshr_miss_latency::total        93000                       # number of LoadLockedReq MSHR miss cycles
system.cpu.dcache.LoadLockedReq_mshr_miss_rate::.cpu.data     0.006024                       # mshr miss rate for LoadLockedReq accesses
system.cpu.dcache.LoadLockedReq_mshr_miss_rate::total     0.006024                       # mshr miss rate for LoadLockedReq accesses
system.cpu.dcache.LoadLockedReq_avg_mshr_miss_latency::.cpu.data        93000                       # average LoadLockedReq mshr miss latency
system.cpu.dcache.LoadLockedReq_avg_mshr_miss_latency::total        93000                       # average LoadLockedReq mshr miss latency
system.cpu.dcache.StoreCondReq_hits::.cpu.data          166                       # number of StoreCondReq hits
system.cpu.dcache.StoreCondReq_hits::total          166                       # number of StoreCondReq hits
system.cpu.dcache.StoreCondReq_accesses::.cpu.data          166                       # number of StoreCondReq accesses(hits+misses)
system.cpu.dcache.StoreCondReq_accesses::total          166                       # number of StoreCondReq accesses(hits+misses)
system.cpu.dcache.tags.pwrStateResidencyTicks::UNDEFINED 118327896000                       # Cumulative time (in ticks) in various power states
system.cpu.dcache.tags.tagsinuse          2016.624754                       # Cycle average of tags in use
system.cpu.dcache.tags.total_refs            43874646                       # Total number of references to valid blocks.
system.cpu.dcache.tags.sampled_refs             19905                       # Sample count of references to valid blocks.
system.cpu.dcache.tags.avg_refs           2204.202261                       # Average number of references to valid blocks.
system.cpu.dcache.tags.warmup_cycle            223000                       # Cycle when the warmup percentage was hit.
system.cpu.dcache.tags.occ_blocks::.cpu.data  2016.624754                       # Average occupied blocks per requestor
system.cpu.dcache.tags.occ_percent::.cpu.data     0.984680                       # Average percentage of cache occupancy
system.cpu.dcache.tags.occ_percent::total     0.984680                       # Average percentage of cache occupancy
system.cpu.dcache.tags.occ_task_id_blocks::1024         2048                       # Occupied blocks per task id
system.cpu.dcache.tags.age_task_id_blocks_1024::2          117                       # Occupied blocks per task id
system.cpu.dcache.tags.age_task_id_blocks_1024::3         1320                       # Occupied blocks per task id
system.cpu.dcache.tags.age_task_id_blocks_1024::4          611                       # Occupied blocks per task id
system.cpu.dcache.tags.occ_task_id_percent::1024            1                       # Percentage of cache occupancy per task id
system.cpu.dcache.tags.tag_accesses         351050081                       # Number of tag accesses
system.cpu.dcache.tags.data_accesses        351050081                       # Number of data accesses
system.cpu.itb.walker.pwrStateResidencyTicks::UNDEFINED 118327896000                       # Cumulative time (in ticks) in various power states
system.cpu.itb.stage2_mmu.stage2_tlb.walker.pwrStateResidencyTicks::UNDEFINED 118327896000                       # Cumulative time (in ticks) in various power states

---------- End Simulation Statistics   ----------
