
---------- Begin Simulation Statistics ----------
final_tick                               156983114000                       # Number of ticks from beginning of simulation (restored from checkpoints and never reset)
host_inst_rate                                 351549                       # Simulator instruction rate (inst/s)
host_mem_usage                                 718252                       # Number of bytes of host memory used
host_op_rate                                   352251                       # Simulator op (including micro ops) rate (op/s)
host_seconds                                   284.46                       # Real time elapsed on the host
host_tick_rate                              551872766                       # Simulator tick rate (ticks/s)
sim_freq                                 1000000000000                       # Frequency of simulated ticks
sim_insts                                   100000001                       # Number of instructions simulated
sim_ops                                     100199569                       # Number of ops (including micro ops) simulated
sim_seconds                                  0.156983                       # Number of seconds simulated
sim_ticks                                156983114000                       # Number of ticks simulated
system.cpu.branchPred.BTBCorrect                    0                       # Number of correct BTB predictions (this stat may not work properly.
system.cpu.branchPred.BTBHitPct             99.568703                       # BTB Hit Percentage
system.cpu.branchPred.BTBHits                 2104048                       # Number of BTB hits
system.cpu.branchPred.BTBLookups              2113162                       # Number of BTB lookups
system.cpu.branchPred.RASInCorrect                  6                       # Number of incorrect RAS predictions.
system.cpu.branchPred.condIncorrect             83520                       # Number of conditional branches incorrect
system.cpu.branchPred.condPredicted           3635493                       # Number of conditional branches predicted
system.cpu.branchPred.indirectHits                297                       # Number of indirect target hits.
system.cpu.branchPred.indirectLookups             792                       # Number of indirect predictor lookups.
system.cpu.branchPred.indirectMisses              495                       # Number of indirect misses.
system.cpu.branchPred.lookups                 4389758                       # Number of BP lookups
system.cpu.branchPred.usedRAS                   66026                       # Number of times the RAS was used to get a target.
system.cpu.branchPredindirectMispredicted          168                       # Number of mispredicted indirect branches.
system.cpu.committedInsts                   100000001                       # Number of instructions committed
system.cpu.committedOps                     100199569                       # Number of ops (including micro ops) committed
system.cpu.cpi                               1.569831                       # CPI: cycles per instruction
system.cpu.discardedOps                        196832                       # Number of ops (including micro ops) which were discarded before commit
system.cpu.dtb.accesses                             0                       # DTB accesses
system.cpu.dtb.align_faults                         0                       # Number of TLB faults due to alignment restrictions
system.cpu.dtb.domain_faults                        0                       # Number of TLB faults due to domain restrictions
system.cpu.dtb.flush_entries                        0                       # Number of entries that have been flushed from TLB
system.cpu.dtb.flush_tlb                            0                       # Number of times complete TLB was flushed
system.cpu.dtb.flush_tlb_asid                       0                       # Number of times TLB was flushed by ASID
system.cpu.dtb.flush_tlb_mva                        0                       # Number of times TLB was flushed by MVA
system.cpu.dtb.flush_tlb_mva_asid                   0                       # Number of times TLB was flushed by MVA & ASID
system.cpu.dtb.hits                                 0                       # DTB hits
system.cpu.dtb.inst_accesses                        0                       # ITB inst accesses
system.cpu.dtb.inst_hits                            0                       # ITB inst hits
system.cpu.dtb.inst_misses                          0                       # ITB inst misses
system.cpu.dtb.misses                               0                       # DTB misses
system.cpu.dtb.perms_faults                         0                       # Number of TLB faults due to permissions restrictions
system.cpu.dtb.prefetch_faults                      0                       # Number of TLB faults due to prefetch
system.cpu.dtb.read_accesses                        0                       # DTB read accesses
system.cpu.dtb.read_hits                            0                       # DTB read hits
system.cpu.dtb.read_misses                          0                       # DTB read misses
system.cpu.dtb.stage2_mmu.stage2_tlb.accesses            0                       # DTB accesses
system.cpu.dtb.stage2_mmu.stage2_tlb.align_faults            0                       # Number of TLB faults due to alignment restrictions
system.cpu.dtb.stage2_mmu.stage2_tlb.domain_faults            0                       # Number of TLB faults due to domain restrictions
system.cpu.dtb.stage2_mmu.stage2_tlb.flush_entries            0                       # Number of entries that have been flushed from TLB
system.cpu.dtb.stage2_mmu.stage2_tlb.flush_tlb            0                       # Number of times complete TLB was flushed
system.cpu.dtb.stage2_mmu.stage2_tlb.flush_tlb_asid            0                       # Number of times TLB was flushed by ASID
system.cpu.dtb.stage2_mmu.stage2_tlb.flush_tlb_mva            0                       # Number of times TLB was flushed by MVA
system.cpu.dtb.stage2_mmu.stage2_tlb.flush_tlb_mva_asid            0                       # Number of times TLB was flushed by MVA & ASID
system.cpu.dtb.stage2_mmu.stage2_tlb.hits            0                       # DTB hits
system.cpu.dtb.stage2_mmu.stage2_tlb.inst_accesses            0                       # ITB inst accesses
system.cpu.dtb.stage2_mmu.stage2_tlb.inst_hits            0                       # ITB inst hits
system.cpu.dtb.stage2_mmu.stage2_tlb.inst_misses            0                       # ITB inst misses
system.cpu.dtb.stage2_mmu.stage2_tlb.misses            0                       # DTB misses
system.cpu.dtb.stage2_mmu.stage2_tlb.perms_faults            0                       # Number of TLB faults due to permissions restrictions
system.cpu.dtb.stage2_mmu.stage2_tlb.prefetch_faults            0                       # Number of TLB faults due to prefetch
system.cpu.dtb.stage2_mmu.stage2_tlb.read_accesses            0                       # DTB read accesses
system.cpu.dtb.stage2_mmu.stage2_tlb.read_hits            0                       # DTB read hits
system.cpu.dtb.stage2_mmu.stage2_tlb.read_misses            0                       # DTB read misses
system.cpu.dtb.stage2_mmu.stage2_tlb.walker.walkRequestOrigin_Requested::Data            0                       # Table walker requests started/completed, data/inst
system.cpu.dtb.stage2_mmu.stage2_tlb.walker.walkRequestOrigin_Requested::Inst            0                       # Table walker requests started/completed, data/inst
system.cpu.dtb.stage2_mmu.stage2_tlb.walker.walkRequestOrigin_Requested::total            0                       # Table walker requests started/completed, data/inst
system.cpu.dtb.stage2_mmu.stage2_tlb.walker.walkRequestOrigin_Completed::Data            0                       # Table walker requests started/completed, data/inst
system.cpu.dtb.stage2_mmu.stage2_tlb.walker.walkRequestOrigin_Completed::Inst            0                       # Table walker requests started/completed, data/inst
system.cpu.dtb.stage2_mmu.stage2_tlb.walker.walkRequestOrigin_Completed::total            0                       # Table walker requests started/completed, data/inst
system.cpu.dtb.stage2_mmu.stage2_tlb.walker.walkRequestOrigin::total            0                       # Table walker requests started/completed, data/inst
system.cpu.dtb.stage2_mmu.stage2_tlb.walker.walks            0                       # Table walker walks requested
system.cpu.dtb.stage2_mmu.stage2_tlb.write_accesses            0                       # DTB write accesses
system.cpu.dtb.stage2_mmu.stage2_tlb.write_hits            0                       # DTB write hits
system.cpu.dtb.stage2_mmu.stage2_tlb.write_misses            0                       # DTB write misses
system.cpu.dtb.walker.walkRequestOrigin_Requested::Data            0                       # Table walker requests started/completed, data/inst
system.cpu.dtb.walker.walkRequestOrigin_Requested::Inst            0                       # Table walker requests started/completed, data/inst
system.cpu.dtb.walker.walkRequestOrigin_Requested::total            0                       # Table walker requests started/completed, data/inst
system.cpu.dtb.walker.walkRequestOrigin_Completed::Data            0                       # Table walker requests started/completed, data/inst
system.cpu.dtb.walker.walkRequestOrigin_Completed::Inst            0                       # Table walker requests started/completed, data/inst
system.cpu.dtb.walker.walkRequestOrigin_Completed::total            0                       # Table walker requests started/completed, data/inst
system.cpu.dtb.walker.walkRequestOrigin::total            0                       # Table walker requests started/completed, data/inst
system.cpu.dtb.walker.walks                         0                       # Table walker walks requested
system.cpu.dtb.write_accesses                       0                       # DTB write accesses
system.cpu.dtb.write_hits                           0                       # DTB write hits
system.cpu.dtb.write_misses                         0                       # DTB write misses
system.cpu.fetch2.amo_instructions                  0                       # Number of memory atomic instructions successfully decoded
system.cpu.fetch2.fp_instructions                   0                       # Number of floating point instructions successfully decoded
system.cpu.fetch2.int_instructions           42627875                       # Number of integer instructions successfully decoded
system.cpu.fetch2.load_instructions          43484978                       # Number of memory load instructions successfully decoded
system.cpu.fetch2.store_instructions         11033407                       # Number of memory store instructions successfully decoded
system.cpu.fetch2.vec_instructions                  0                       # Number of SIMD instructions successfully decoded
system.cpu.idleCycles                        24464538                       # Total number of cycles that the object has spent stopped
system.cpu.ipc                               0.637011                       # IPC: instructions per cycle
system.cpu.itb.accesses                             0                       # DTB accesses
system.cpu.itb.align_faults                         0                       # Number of TLB faults due to alignment restrictions
system.cpu.itb.domain_faults                        0                       # Number of TLB faults due to domain restrictions
system.cpu.itb.flush_entries                        0                       # Number of entries that have been flushed from TLB
system.cpu.itb.flush_tlb                            0                       # Number of times complete TLB was flushed
system.cpu.itb.flush_tlb_asid                       0                       # Number of times TLB was flushed by ASID
system.cpu.itb.flush_tlb_mva                        0                       # Number of times TLB was flushed by MVA
system.cpu.itb.flush_tlb_mva_asid                   0                       # Number of times TLB was flushed by MVA & ASID
system.cpu.itb.hits                                 0                       # DTB hits
system.cpu.itb.inst_accesses                        0                       # ITB inst accesses
system.cpu.itb.inst_hits                            0                       # ITB inst hits
system.cpu.itb.inst_misses                          0                       # ITB inst misses
system.cpu.itb.misses                               0                       # DTB misses
system.cpu.itb.perms_faults                         0                       # Number of TLB faults due to permissions restrictions
system.cpu.itb.prefetch_faults                      0                       # Number of TLB faults due to prefetch
system.cpu.itb.read_accesses                        0                       # DTB read accesses
system.cpu.itb.read_hits                            0                       # DTB read hits
system.cpu.itb.read_misses                          0                       # DTB read misses
system.cpu.itb.stage2_mmu.stage2_tlb.accesses            0                       # DTB accesses
system.cpu.itb.stage2_mmu.stage2_tlb.align_faults            0                       # Number of TLB faults due to alignment restrictions
system.cpu.itb.stage2_mmu.stage2_tlb.domain_faults            0                       # Number of TLB faults due to domain restrictions
system.cpu.itb.stage2_mmu.stage2_tlb.flush_entries            0                       # Number of entries that have been flushed from TLB
system.cpu.itb.stage2_mmu.stage2_tlb.flush_tlb            0                       # Number of times complete TLB was flushed
system.cpu.itb.stage2_mmu.stage2_tlb.flush_tlb_asid            0                       # Number of times TLB was flushed by ASID
system.cpu.itb.stage2_mmu.stage2_tlb.flush_tlb_mva            0                       # Number of times TLB was flushed by MVA
system.cpu.itb.stage2_mmu.stage2_tlb.flush_tlb_mva_asid            0                       # Number of times TLB was flushed by MVA & ASID
system.cpu.itb.stage2_mmu.stage2_tlb.hits            0                       # DTB hits
system.cpu.itb.stage2_mmu.stage2_tlb.inst_accesses            0                       # ITB inst accesses
system.cpu.itb.stage2_mmu.stage2_tlb.inst_hits            0                       # ITB inst hits
system.cpu.itb.stage2_mmu.stage2_tlb.inst_misses            0                       # ITB inst misses
system.cpu.itb.stage2_mmu.stage2_tlb.misses            0                       # DTB misses
system.cpu.itb.stage2_mmu.stage2_tlb.perms_faults            0                       # Number of TLB faults due to permissions restrictions
system.cpu.itb.stage2_mmu.stage2_tlb.prefetch_faults            0                       # Number of TLB faults due to prefetch
system.cpu.itb.stage2_mmu.stage2_tlb.read_accesses            0                       # DTB read accesses
system.cpu.itb.stage2_mmu.stage2_tlb.read_hits            0                       # DTB read hits
system.cpu.itb.stage2_mmu.stage2_tlb.read_misses            0                       # DTB read misses
system.cpu.itb.stage2_mmu.stage2_tlb.walker.walkRequestOrigin_Requested::Data            0                       # Table walker requests started/completed, data/inst
system.cpu.itb.stage2_mmu.stage2_tlb.walker.walkRequestOrigin_Requested::Inst            0                       # Table walker requests started/completed, data/inst
system.cpu.itb.stage2_mmu.stage2_tlb.walker.walkRequestOrigin_Requested::total            0                       # Table walker requests started/completed, data/inst
system.cpu.itb.stage2_mmu.stage2_tlb.walker.walkRequestOrigin_Completed::Data            0                       # Table walker requests started/completed, data/inst
system.cpu.itb.stage2_mmu.stage2_tlb.walker.walkRequestOrigin_Completed::Inst            0                       # Table walker requests started/completed, data/inst
system.cpu.itb.stage2_mmu.stage2_tlb.walker.walkRequestOrigin_Completed::total            0                       # Table walker requests started/completed, data/inst
system.cpu.itb.stage2_mmu.stage2_tlb.walker.walkRequestOrigin::total            0                       # Table walker requests started/completed, data/inst
system.cpu.itb.stage2_mmu.stage2_tlb.walker.walks            0                       # Table walker walks requested
system.cpu.itb.stage2_mmu.stage2_tlb.write_accesses            0                       # DTB write accesses
system.cpu.itb.stage2_mmu.stage2_tlb.write_hits            0                       # DTB write hits
system.cpu.itb.stage2_mmu.stage2_tlb.write_misses            0                       # DTB write misses
system.cpu.itb.walker.walkRequestOrigin_Requested::Data            0                       # Table walker requests started/completed, data/inst
system.cpu.itb.walker.walkRequestOrigin_Requested::Inst            0                       # Table walker requests started/completed, data/inst
system.cpu.itb.walker.walkRequestOrigin_Requested::total            0                       # Table walker requests started/completed, data/inst
system.cpu.itb.walker.walkRequestOrigin_Completed::Data            0                       # Table walker requests started/completed, data/inst
system.cpu.itb.walker.walkRequestOrigin_Completed::Inst            0                       # Table walker requests started/completed, data/inst
system.cpu.itb.walker.walkRequestOrigin_Completed::total            0                       # Table walker requests started/completed, data/inst
system.cpu.itb.walker.walkRequestOrigin::total            0                       # Table walker requests started/completed, data/inst
system.cpu.itb.walker.walks                         0                       # Table walker walks requested
system.cpu.itb.write_accesses                       0                       # DTB write accesses
system.cpu.itb.write_hits                           0                       # DTB write hits
system.cpu.itb.write_misses                         0                       # DTB write misses
system.cpu.numCycles                        156983114                       # number of cpu cycles simulated
system.cpu.numFetchSuspends                         0                       # Number of times Execute suspended instruction fetching
system.cpu.numWorkItemsCompleted                    0                       # number of work items this cpu completed
system.cpu.numWorkItemsStarted                      0                       # number of work items this cpu started
system.cpu.op_class_0::No_OpClass                   0      0.00%      0.00% # Class of committed instruction
system.cpu.op_class_0::IntAlu                46443154     46.35%     46.35% # Class of committed instruction
system.cpu.op_class_0::IntMult                  20720      0.02%     46.37% # Class of committed instruction
system.cpu.op_class_0::IntDiv                       0      0.00%     46.37% # Class of committed instruction
system.cpu.op_class_0::FloatAdd                     0      0.00%     46.37% # Class of committed instruction
system.cpu.op_class_0::FloatCmp                     0      0.00%     46.37% # Class of committed instruction
system.cpu.op_class_0::FloatCvt                     0      0.00%     46.37% # Class of committed instruction
system.cpu.op_class_0::FloatMult                    0      0.00%     46.37% # Class of committed instruction
system.cpu.op_class_0::FloatMultAcc                 0      0.00%     46.37% # Class of committed instruction
system.cpu.op_class_0::FloatDiv                     0      0.00%     46.37% # Class of committed instruction
system.cpu.op_class_0::FloatMisc                    0      0.00%     46.37% # Class of committed instruction
system.cpu.op_class_0::FloatSqrt                    0      0.00%     46.37% # Class of committed instruction
system.cpu.op_class_0::SimdAdd                      0      0.00%     46.37% # Class of committed instruction
system.cpu.op_class_0::SimdAddAcc                   0      0.00%     46.37% # Class of committed instruction
system.cpu.op_class_0::SimdAlu                      0      0.00%     46.37% # Class of committed instruction
system.cpu.op_class_0::SimdCmp                      0      0.00%     46.37% # Class of committed instruction
system.cpu.op_class_0::SimdCvt                      0      0.00%     46.37% # Class of committed instruction
system.cpu.op_class_0::SimdMisc                     0      0.00%     46.37% # Class of committed instruction
system.cpu.op_class_0::SimdMult                     0      0.00%     46.37% # Class of committed instruction
system.cpu.op_class_0::SimdMultAcc                  0      0.00%     46.37% # Class of committed instruction
system.cpu.op_class_0::SimdShift                    0      0.00%     46.37% # Class of committed instruction
system.cpu.op_class_0::SimdShiftAcc                 0      0.00%     46.37% # Class of committed instruction
system.cpu.op_class_0::SimdDiv                      0      0.00%     46.37% # Class of committed instruction
system.cpu.op_class_0::SimdSqrt                     0      0.00%     46.37% # Class of committed instruction
system.cpu.op_class_0::SimdFloatAdd                 0      0.00%     46.37% # Class of committed instruction
system.cpu.op_class_0::SimdFloatAlu                 0      0.00%     46.37% # Class of committed instruction
system.cpu.op_class_0::SimdFloatCmp                 0      0.00%     46.37% # Class of committed instruction
system.cpu.op_class_0::SimdFloatCvt                 0      0.00%     46.37% # Class of committed instruction
system.cpu.op_class_0::SimdFloatDiv                 0      0.00%     46.37% # Class of committed instruction
system.cpu.op_class_0::SimdFloatMisc                1      0.00%     46.37% # Class of committed instruction
system.cpu.op_class_0::SimdFloatMult                0      0.00%     46.37% # Class of committed instruction
system.cpu.op_class_0::SimdFloatMultAcc             0      0.00%     46.37% # Class of committed instruction
system.cpu.op_class_0::SimdFloatSqrt                0      0.00%     46.37% # Class of committed instruction
system.cpu.op_class_0::SimdReduceAdd                0      0.00%     46.37% # Class of committed instruction
system.cpu.op_class_0::SimdReduceAlu                0      0.00%     46.37% # Class of committed instruction
system.cpu.op_class_0::SimdReduceCmp                0      0.00%     46.37% # Class of committed instruction
system.cpu.op_class_0::SimdFloatReduceAdd            0      0.00%     46.37% # Class of committed instruction
system.cpu.op_class_0::SimdFloatReduceCmp            0      0.00%     46.37% # Class of committed instruction
system.cpu.op_class_0::SimdAes                      0      0.00%     46.37% # Class of committed instruction
system.cpu.op_class_0::SimdAesMix                   0      0.00%     46.37% # Class of committed instruction
system.cpu.op_class_0::SimdSha1Hash                 0      0.00%     46.37% # Class of committed instruction
system.cpu.op_class_0::SimdSha1Hash2                0      0.00%     46.37% # Class of committed instruction
system.cpu.op_class_0::SimdSha256Hash               0      0.00%     46.37% # Class of committed instruction
system.cpu.op_class_0::SimdSha256Hash2              0      0.00%     46.37% # Class of committed instruction
system.cpu.op_class_0::SimdShaSigma2                0      0.00%     46.37% # Class of committed instruction
system.cpu.op_class_0::SimdShaSigma3                0      0.00%     46.37% # Class of committed instruction
system.cpu.op_class_0::SimdPredAlu                  0      0.00%     46.37% # Class of committed instruction
system.cpu.op_class_0::MemRead               42756988     42.67%     89.04% # Class of committed instruction
system.cpu.op_class_0::MemWrite              10978706     10.96%    100.00% # Class of committed instruction
system.cpu.op_class_0::FloatMemRead                 0      0.00%    100.00% # Class of committed instruction
system.cpu.op_class_0::FloatMemWrite                0      0.00%    100.00% # Class of committed instruction
system.cpu.op_class_0::IprAccess                    0      0.00%    100.00% # Class of committed instruction
system.cpu.op_class_0::InstPrefetch                 0      0.00%    100.00% # Class of committed instruction
system.cpu.op_class_0::total                100199569                       # Class of committed instruction
system.cpu.tickCycles                       132518576                       # Number of cycles that the object actually ticked
system.cpu.workload.numSyscalls                    85                       # Number of system calls
system.membus.snoop_filter.hit_multi_requests            0                       # Number of requests hitting in the snoop filter with multiple (>1) holders of the requested data.
system.membus.snoop_filter.hit_multi_snoops            0                       # Number of snoops hitting in the snoop filter with multiple (>1) holders of the requested data.
system.membus.snoop_filter.hit_single_requests       168015                       # Number of requests hitting in the snoop filter with a single holder of the requested data.
system.membus.snoop_filter.hit_single_snoops            0                       # Number of snoops hitting in the snoop filter with a single holder of the requested data.
system.membus.snoop_filter.tot_requests        369142                       # Total number of requests made to the snoop filter.
system.membus.snoop_filter.tot_snoops               0                       # Total number of snoops made to the snoop filter.
system.tol2bus.snoop_filter.hit_multi_requests           52                       # Number of requests hitting in the snoop filter with multiple (>1) holders of the requested data.
system.tol2bus.snoop_filter.hit_multi_snoops            0                       # Number of snoops hitting in the snoop filter with multiple (>1) holders of the requested data.
system.tol2bus.snoop_filter.hit_single_requests       475897                       # Number of requests hitting in the snoop filter with a single holder of the requested data.
system.tol2bus.snoop_filter.hit_single_snoops          494                       # Number of snoops hitting in the snoop filter with a single holder of the requested data.
system.tol2bus.snoop_filter.tot_requests       954279                       # Total number of requests made to the snoop filter.
system.tol2bus.snoop_filter.tot_snoops            494                       # Total number of snoops made to the snoop filter.
system.membus.pwrStateResidencyTicks::UNDEFINED 156983114000                       # Cumulative time (in ticks) in various power states
system.membus.trans_dist::ReadResp              64902                       # Transaction distribution
system.membus.trans_dist::WritebackDirty       111212                       # Transaction distribution
system.membus.trans_dist::CleanEvict            56797                       # Transaction distribution
system.membus.trans_dist::ReadExReq            136231                       # Transaction distribution
system.membus.trans_dist::ReadExResp           136231                       # Transaction distribution
system.membus.trans_dist::ReadSharedReq         64902                       # Transaction distribution
system.membus.pkt_count_system.l2.mem_side::system.mem_ctrls.port       570275                       # Packet count per connected master and slave (bytes)
system.membus.pkt_count::total                 570275                       # Packet count per connected master and slave (bytes)
system.membus.pkt_size_system.l2.mem_side::system.mem_ctrls.port     19990080                       # Cumulative packet size per connected master and slave (bytes)
system.membus.pkt_size::total                19990080                       # Cumulative packet size per connected master and slave (bytes)
system.membus.snoops                                0                       # Total snoops (count)
system.membus.snoopTraffic                          0                       # Total snoop traffic (bytes)
system.membus.snoop_fanout::samples            201133                       # Request fanout histogram
system.membus.snoop_fanout::mean                    0                       # Request fanout histogram
system.membus.snoop_fanout::stdev                   0                       # Request fanout histogram
system.membus.snoop_fanout::underflows              0      0.00%      0.00% # Request fanout histogram
system.membus.snoop_fanout::0                  201133    100.00%    100.00% # Request fanout histogram
system.membus.snoop_fanout::1                       0      0.00%    100.00% # Request fanout histogram
system.membus.snoop_fanout::overflows               0      0.00%    100.00% # Request fanout histogram
system.membus.snoop_fanout::min_value               0                       # Request fanout histogram
system.membus.snoop_fanout::max_value               0                       # Request fanout histogram
system.membus.snoop_fanout::total              201133                       # Request fanout histogram
system.membus.respLayer1.occupancy         1087064000                       # Layer occupancy (ticks)
system.membus.respLayer1.utilization              0.7                       # Layer utilization (%)
system.membus.reqLayer0.occupancy           813990000                       # Layer occupancy (ticks)
system.membus.reqLayer0.utilization               0.5                       # Layer utilization (%)
system.tol2bus.pwrStateResidencyTicks::UNDEFINED 156983114000                       # Cumulative time (in ticks) in various power states
system.tol2bus.trans_dist::ReadResp            250115                       # Transaction distribution
system.tol2bus.trans_dist::WritebackDirty       513339                       # Transaction distribution
system.tol2bus.trans_dist::WritebackClean          316                       # Transaction distribution
system.tol2bus.trans_dist::CleanEvict          130743                       # Transaction distribution
system.tol2bus.trans_dist::ReadExReq           228269                       # Transaction distribution
system.tol2bus.trans_dist::ReadExResp          228269                       # Transaction distribution
system.tol2bus.trans_dist::ReadCleanReq           757                       # Transaction distribution
system.tol2bus.trans_dist::ReadSharedReq       249358                       # Transaction distribution
system.tol2bus.pkt_count_system.cpu.icache.mem_side::system.l2.cpu_side         1830                       # Packet count per connected master and slave (bytes)
system.tol2bus.pkt_count_system.cpu.dcache.mem_side::system.l2.cpu_side      1430833                       # Packet count per connected master and slave (bytes)
system.tol2bus.pkt_count::total               1432663                       # Packet count per connected master and slave (bytes)
system.tol2bus.pkt_size_system.cpu.icache.mem_side::system.l2.cpu_side        68672                       # Cumulative packet size per connected master and slave (bytes)
system.tol2bus.pkt_size_system.cpu.dcache.mem_side::system.l2.cpu_side     56304256                       # Cumulative packet size per connected master and slave (bytes)
system.tol2bus.pkt_size::total               56372928                       # Cumulative packet size per connected master and slave (bytes)
system.tol2bus.snoops                          168503                       # Total snoops (count)
system.tol2bus.snoopTraffic                   7117568                       # Total snoop traffic (bytes)
system.tol2bus.snoop_fanout::samples           646887                       # Request fanout histogram
system.tol2bus.snoop_fanout::mean            0.000847                       # Request fanout histogram
system.tol2bus.snoop_fanout::stdev           0.029093                       # Request fanout histogram
system.tol2bus.snoop_fanout::underflows             0      0.00%      0.00% # Request fanout histogram
system.tol2bus.snoop_fanout::0                 646339     99.92%     99.92% # Request fanout histogram
system.tol2bus.snoop_fanout::1                    548      0.08%    100.00% # Request fanout histogram
system.tol2bus.snoop_fanout::2                      0      0.00%    100.00% # Request fanout histogram
system.tol2bus.snoop_fanout::overflows              0      0.00%    100.00% # Request fanout histogram
system.tol2bus.snoop_fanout::min_value              0                       # Request fanout histogram
system.tol2bus.snoop_fanout::max_value              1                       # Request fanout histogram
system.tol2bus.snoop_fanout::total             646887                       # Request fanout histogram
system.tol2bus.reqLayer0.occupancy         1759165000                       # Layer occupancy (ticks)
system.tol2bus.reqLayer0.utilization              1.1                       # Layer utilization (%)
system.tol2bus.respLayer1.occupancy        1432885995                       # Layer occupancy (ticks)
system.tol2bus.respLayer1.utilization             0.9                       # Layer utilization (%)
system.tol2bus.respLayer0.occupancy           2271000                       # Layer occupancy (ticks)
system.tol2bus.respLayer0.utilization             0.0                       # Layer utilization (%)
system.voltage_domain.voltage                       1                       # Voltage in Volts
system.clk_domain.clock                          1000                       # Clock period in ticks
system.l2.pwrStateResidencyTicks::UNDEFINED 156983114000                       # Cumulative time (in ticks) in various power states
system.l2.demand_hits::.cpu.inst                   90                       # number of demand (read+write) hits
system.l2.demand_hits::.cpu.data               277156                       # number of demand (read+write) hits
system.l2.demand_hits::total                   277246                       # number of demand (read+write) hits
system.l2.overall_hits::.cpu.inst                  90                       # number of overall hits
system.l2.overall_hits::.cpu.data              277156                       # number of overall hits
system.l2.overall_hits::total                  277246                       # number of overall hits
system.l2.demand_misses::.cpu.inst                667                       # number of demand (read+write) misses
system.l2.demand_misses::.cpu.data             200471                       # number of demand (read+write) misses
system.l2.demand_misses::total                 201138                       # number of demand (read+write) misses
system.l2.overall_misses::.cpu.inst               667                       # number of overall misses
system.l2.overall_misses::.cpu.data            200471                       # number of overall misses
system.l2.overall_misses::total                201138                       # number of overall misses
system.l2.demand_miss_latency::.cpu.inst     65848000                       # number of demand (read+write) miss cycles
system.l2.demand_miss_latency::.cpu.data  20896345000                       # number of demand (read+write) miss cycles
system.l2.demand_miss_latency::total      20962193000                       # number of demand (read+write) miss cycles
system.l2.overall_miss_latency::.cpu.inst     65848000                       # number of overall miss cycles
system.l2.overall_miss_latency::.cpu.data  20896345000                       # number of overall miss cycles
system.l2.overall_miss_latency::total     20962193000                       # number of overall miss cycles
system.l2.demand_accesses::.cpu.inst              757                       # number of demand (read+write) accesses
system.l2.demand_accesses::.cpu.data           477627                       # number of demand (read+write) accesses
system.l2.demand_accesses::total               478384                       # number of demand (read+write) accesses
system.l2.overall_accesses::.cpu.inst             757                       # number of overall (read+write) accesses
system.l2.overall_accesses::.cpu.data          477627                       # number of overall (read+write) accesses
system.l2.overall_accesses::total              478384                       # number of overall (read+write) accesses
system.l2.demand_miss_rate::.cpu.inst        0.881110                       # miss rate for demand accesses
system.l2.demand_miss_rate::.cpu.data        0.419723                       # miss rate for demand accesses
system.l2.demand_miss_rate::total            0.420453                       # miss rate for demand accesses
system.l2.overall_miss_rate::.cpu.inst       0.881110                       # miss rate for overall accesses
system.l2.overall_miss_rate::.cpu.data       0.419723                       # miss rate for overall accesses
system.l2.overall_miss_rate::total           0.420453                       # miss rate for overall accesses
system.l2.demand_avg_miss_latency::.cpu.inst 98722.638681                       # average overall miss latency
system.l2.demand_avg_miss_latency::.cpu.data 104236.248634                       # average overall miss latency
system.l2.demand_avg_miss_latency::total 104217.964780                       # average overall miss latency
system.l2.overall_avg_miss_latency::.cpu.inst 98722.638681                       # average overall miss latency
system.l2.overall_avg_miss_latency::.cpu.data 104236.248634                       # average overall miss latency
system.l2.overall_avg_miss_latency::total 104217.964780                       # average overall miss latency
system.l2.blocked_cycles::no_mshrs                  0                       # number of cycles access was blocked
system.l2.blocked_cycles::no_targets                0                       # number of cycles access was blocked
system.l2.blocked::no_mshrs                         0                       # number of cycles access was blocked
system.l2.blocked::no_targets                       0                       # number of cycles access was blocked
system.l2.avg_blocked_cycles::no_mshrs            nan                       # average number of cycles each access was blocked
system.l2.avg_blocked_cycles::no_targets          nan                       # average number of cycles each access was blocked
system.l2.writebacks::.writebacks              111212                       # number of writebacks
system.l2.writebacks::total                    111212                       # number of writebacks
system.l2.demand_mshr_hits::.cpu.data               5                       # number of demand (read+write) MSHR hits
system.l2.demand_mshr_hits::total                   5                       # number of demand (read+write) MSHR hits
system.l2.overall_mshr_hits::.cpu.data              5                       # number of overall MSHR hits
system.l2.overall_mshr_hits::total                  5                       # number of overall MSHR hits
system.l2.demand_mshr_misses::.cpu.inst           667                       # number of demand (read+write) MSHR misses
system.l2.demand_mshr_misses::.cpu.data        200466                       # number of demand (read+write) MSHR misses
system.l2.demand_mshr_misses::total            201133                       # number of demand (read+write) MSHR misses
system.l2.overall_mshr_misses::.cpu.inst          667                       # number of overall MSHR misses
system.l2.overall_mshr_misses::.cpu.data       200466                       # number of overall MSHR misses
system.l2.overall_mshr_misses::total           201133                       # number of overall MSHR misses
system.l2.demand_mshr_miss_latency::.cpu.inst     52508000                       # number of demand (read+write) MSHR miss cycles
system.l2.demand_mshr_miss_latency::.cpu.data  16886614000                       # number of demand (read+write) MSHR miss cycles
system.l2.demand_mshr_miss_latency::total  16939122000                       # number of demand (read+write) MSHR miss cycles
system.l2.overall_mshr_miss_latency::.cpu.inst     52508000                       # number of overall MSHR miss cycles
system.l2.overall_mshr_miss_latency::.cpu.data  16886614000                       # number of overall MSHR miss cycles
system.l2.overall_mshr_miss_latency::total  16939122000                       # number of overall MSHR miss cycles
system.l2.demand_mshr_miss_rate::.cpu.inst     0.881110                       # mshr miss rate for demand accesses
system.l2.demand_mshr_miss_rate::.cpu.data     0.419712                       # mshr miss rate for demand accesses
system.l2.demand_mshr_miss_rate::total       0.420443                       # mshr miss rate for demand accesses
system.l2.overall_mshr_miss_rate::.cpu.inst     0.881110                       # mshr miss rate for overall accesses
system.l2.overall_mshr_miss_rate::.cpu.data     0.419712                       # mshr miss rate for overall accesses
system.l2.overall_mshr_miss_rate::total      0.420443                       # mshr miss rate for overall accesses
system.l2.demand_avg_mshr_miss_latency::.cpu.inst 78722.638681                       # average overall mshr miss latency
system.l2.demand_avg_mshr_miss_latency::.cpu.data 84236.798260                       # average overall mshr miss latency
system.l2.demand_avg_mshr_miss_latency::total 84218.512129                       # average overall mshr miss latency
system.l2.overall_avg_mshr_miss_latency::.cpu.inst 78722.638681                       # average overall mshr miss latency
system.l2.overall_avg_mshr_miss_latency::.cpu.data 84236.798260                       # average overall mshr miss latency
system.l2.overall_avg_mshr_miss_latency::total 84218.512129                       # average overall mshr miss latency
system.l2.replacements                         168503                       # number of replacements
system.l2.WritebackDirty_hits::.writebacks       402127                       # number of WritebackDirty hits
system.l2.WritebackDirty_hits::total           402127                       # number of WritebackDirty hits
system.l2.WritebackDirty_accesses::.writebacks       402127                       # number of WritebackDirty accesses(hits+misses)
system.l2.WritebackDirty_accesses::total       402127                       # number of WritebackDirty accesses(hits+misses)
system.l2.WritebackClean_hits::.writebacks          313                       # number of WritebackClean hits
system.l2.WritebackClean_hits::total              313                       # number of WritebackClean hits
system.l2.WritebackClean_accesses::.writebacks          313                       # number of WritebackClean accesses(hits+misses)
system.l2.WritebackClean_accesses::total          313                       # number of WritebackClean accesses(hits+misses)
system.l2.ReadExReq_hits::.cpu.data             92038                       # number of ReadExReq hits
system.l2.ReadExReq_hits::total                 92038                       # number of ReadExReq hits
system.l2.ReadExReq_misses::.cpu.data          136231                       # number of ReadExReq misses
system.l2.ReadExReq_misses::total              136231                       # number of ReadExReq misses
system.l2.ReadExReq_miss_latency::.cpu.data  14488063000                       # number of ReadExReq miss cycles
system.l2.ReadExReq_miss_latency::total   14488063000                       # number of ReadExReq miss cycles
system.l2.ReadExReq_accesses::.cpu.data        228269                       # number of ReadExReq accesses(hits+misses)
system.l2.ReadExReq_accesses::total            228269                       # number of ReadExReq accesses(hits+misses)
system.l2.ReadExReq_miss_rate::.cpu.data     0.596800                       # miss rate for ReadExReq accesses
system.l2.ReadExReq_miss_rate::total         0.596800                       # miss rate for ReadExReq accesses
system.l2.ReadExReq_avg_miss_latency::.cpu.data 106349.237692                       # average ReadExReq miss latency
system.l2.ReadExReq_avg_miss_latency::total 106349.237692                       # average ReadExReq miss latency
system.l2.ReadExReq_mshr_misses::.cpu.data       136231                       # number of ReadExReq MSHR misses
system.l2.ReadExReq_mshr_misses::total         136231                       # number of ReadExReq MSHR misses
system.l2.ReadExReq_mshr_miss_latency::.cpu.data  11763443000                       # number of ReadExReq MSHR miss cycles
system.l2.ReadExReq_mshr_miss_latency::total  11763443000                       # number of ReadExReq MSHR miss cycles
system.l2.ReadExReq_mshr_miss_rate::.cpu.data     0.596800                       # mshr miss rate for ReadExReq accesses
system.l2.ReadExReq_mshr_miss_rate::total     0.596800                       # mshr miss rate for ReadExReq accesses
system.l2.ReadExReq_avg_mshr_miss_latency::.cpu.data 86349.237692                       # average ReadExReq mshr miss latency
system.l2.ReadExReq_avg_mshr_miss_latency::total 86349.237692                       # average ReadExReq mshr miss latency
system.l2.ReadCleanReq_hits::.cpu.inst             90                       # number of ReadCleanReq hits
system.l2.ReadCleanReq_hits::total                 90                       # number of ReadCleanReq hits
system.l2.ReadCleanReq_misses::.cpu.inst          667                       # number of ReadCleanReq misses
system.l2.ReadCleanReq_misses::total              667                       # number of ReadCleanReq misses
system.l2.ReadCleanReq_miss_latency::.cpu.inst     65848000                       # number of ReadCleanReq miss cycles
system.l2.ReadCleanReq_miss_latency::total     65848000                       # number of ReadCleanReq miss cycles
system.l2.ReadCleanReq_accesses::.cpu.inst          757                       # number of ReadCleanReq accesses(hits+misses)
system.l2.ReadCleanReq_accesses::total            757                       # number of ReadCleanReq accesses(hits+misses)
system.l2.ReadCleanReq_miss_rate::.cpu.inst     0.881110                       # miss rate for ReadCleanReq accesses
system.l2.ReadCleanReq_miss_rate::total      0.881110                       # miss rate for ReadCleanReq accesses
system.l2.ReadCleanReq_avg_miss_latency::.cpu.inst 98722.638681                       # average ReadCleanReq miss latency
system.l2.ReadCleanReq_avg_miss_latency::total 98722.638681                       # average ReadCleanReq miss latency
system.l2.ReadCleanReq_mshr_misses::.cpu.inst          667                       # number of ReadCleanReq MSHR misses
system.l2.ReadCleanReq_mshr_misses::total          667                       # number of ReadCleanReq MSHR misses
system.l2.ReadCleanReq_mshr_miss_latency::.cpu.inst     52508000                       # number of ReadCleanReq MSHR miss cycles
system.l2.ReadCleanReq_mshr_miss_latency::total     52508000                       # number of ReadCleanReq MSHR miss cycles
system.l2.ReadCleanReq_mshr_miss_rate::.cpu.inst     0.881110                       # mshr miss rate for ReadCleanReq accesses
system.l2.ReadCleanReq_mshr_miss_rate::total     0.881110                       # mshr miss rate for ReadCleanReq accesses
system.l2.ReadCleanReq_avg_mshr_miss_latency::.cpu.inst 78722.638681                       # average ReadCleanReq mshr miss latency
system.l2.ReadCleanReq_avg_mshr_miss_latency::total 78722.638681                       # average ReadCleanReq mshr miss latency
system.l2.ReadSharedReq_hits::.cpu.data        185118                       # number of ReadSharedReq hits
system.l2.ReadSharedReq_hits::total            185118                       # number of ReadSharedReq hits
system.l2.ReadSharedReq_misses::.cpu.data        64240                       # number of ReadSharedReq misses
system.l2.ReadSharedReq_misses::total           64240                       # number of ReadSharedReq misses
system.l2.ReadSharedReq_miss_latency::.cpu.data   6408282000                       # number of ReadSharedReq miss cycles
system.l2.ReadSharedReq_miss_latency::total   6408282000                       # number of ReadSharedReq miss cycles
system.l2.ReadSharedReq_accesses::.cpu.data       249358                       # number of ReadSharedReq accesses(hits+misses)
system.l2.ReadSharedReq_accesses::total        249358                       # number of ReadSharedReq accesses(hits+misses)
system.l2.ReadSharedReq_miss_rate::.cpu.data     0.257622                       # miss rate for ReadSharedReq accesses
system.l2.ReadSharedReq_miss_rate::total     0.257622                       # miss rate for ReadSharedReq accesses
system.l2.ReadSharedReq_avg_miss_latency::.cpu.data 99755.323786                       # average ReadSharedReq miss latency
system.l2.ReadSharedReq_avg_miss_latency::total 99755.323786                       # average ReadSharedReq miss latency
system.l2.ReadSharedReq_mshr_hits::.cpu.data            5                       # number of ReadSharedReq MSHR hits
system.l2.ReadSharedReq_mshr_hits::total            5                       # number of ReadSharedReq MSHR hits
system.l2.ReadSharedReq_mshr_misses::.cpu.data        64235                       # number of ReadSharedReq MSHR misses
system.l2.ReadSharedReq_mshr_misses::total        64235                       # number of ReadSharedReq MSHR misses
system.l2.ReadSharedReq_mshr_miss_latency::.cpu.data   5123171000                       # number of ReadSharedReq MSHR miss cycles
system.l2.ReadSharedReq_mshr_miss_latency::total   5123171000                       # number of ReadSharedReq MSHR miss cycles
system.l2.ReadSharedReq_mshr_miss_rate::.cpu.data     0.257602                       # mshr miss rate for ReadSharedReq accesses
system.l2.ReadSharedReq_mshr_miss_rate::total     0.257602                       # mshr miss rate for ReadSharedReq accesses
system.l2.ReadSharedReq_avg_mshr_miss_latency::.cpu.data 79756.690278                       # average ReadSharedReq mshr miss latency
system.l2.ReadSharedReq_avg_mshr_miss_latency::total 79756.690278                       # average ReadSharedReq mshr miss latency
system.l2.tags.pwrStateResidencyTicks::UNDEFINED 156983114000                       # Cumulative time (in ticks) in various power states
system.l2.tags.tagsinuse                 32143.706836                       # Cycle average of tags in use
system.l2.tags.total_refs                      954222                       # Total number of references to valid blocks.
system.l2.tags.sampled_refs                    201271                       # Sample count of references to valid blocks.
system.l2.tags.avg_refs                      4.740981                       # Average number of references to valid blocks.
system.l2.tags.warmup_cycle                     87000                       # Cycle when the warmup percentage was hit.
system.l2.tags.occ_blocks::.writebacks      44.111626                       # Average occupied blocks per requestor
system.l2.tags.occ_blocks::.cpu.inst        82.459437                       # Average occupied blocks per requestor
system.l2.tags.occ_blocks::.cpu.data     32017.135774                       # Average occupied blocks per requestor
system.l2.tags.occ_percent::.writebacks      0.001346                       # Average percentage of cache occupancy
system.l2.tags.occ_percent::.cpu.inst        0.002516                       # Average percentage of cache occupancy
system.l2.tags.occ_percent::.cpu.data        0.977085                       # Average percentage of cache occupancy
system.l2.tags.occ_percent::total            0.980948                       # Average percentage of cache occupancy
system.l2.tags.occ_task_id_blocks::1024         32768                       # Occupied blocks per task id
system.l2.tags.age_task_id_blocks_1024::0           18                       # Occupied blocks per task id
system.l2.tags.age_task_id_blocks_1024::1           95                       # Occupied blocks per task id
system.l2.tags.age_task_id_blocks_1024::2          593                       # Occupied blocks per task id
system.l2.tags.age_task_id_blocks_1024::3         8180                       # Occupied blocks per task id
system.l2.tags.age_task_id_blocks_1024::4        23882                       # Occupied blocks per task id
system.l2.tags.occ_task_id_percent::1024            1                       # Percentage of cache occupancy per task id
system.l2.tags.tag_accesses                   7835087                       # Number of tag accesses
system.l2.tags.data_accesses                  7835087                       # Number of data accesses
system.cpu_voltage_domain.voltage                   1                       # Voltage in Volts
system.mem_ctrls.pwrStateResidencyTicks::UNDEFINED 156983114000                       # Cumulative time (in ticks) in various power states
system.mem_ctrls.bytes_read::.cpu.inst          42688                       # Number of bytes read from this memory
system.mem_ctrls.bytes_read::.cpu.data       12829824                       # Number of bytes read from this memory
system.mem_ctrls.bytes_read::total           12872512                       # Number of bytes read from this memory
system.mem_ctrls.bytes_inst_read::.cpu.inst        42688                       # Number of instructions bytes read from this memory
system.mem_ctrls.bytes_inst_read::total         42688                       # Number of instructions bytes read from this memory
system.mem_ctrls.bytes_written::.writebacks      7117568                       # Number of bytes written to this memory
system.mem_ctrls.bytes_written::total         7117568                       # Number of bytes written to this memory
system.mem_ctrls.num_reads::.cpu.inst             667                       # Number of read requests responded to by this memory
system.mem_ctrls.num_reads::.cpu.data          200466                       # Number of read requests responded to by this memory
system.mem_ctrls.num_reads::total              201133                       # Number of read requests responded to by this memory
system.mem_ctrls.num_writes::.writebacks       111212                       # Number of write requests responded to by this memory
system.mem_ctrls.num_writes::total             111212                       # Number of write requests responded to by this memory
system.mem_ctrls.bw_read::.cpu.inst            271927                       # Total read bandwidth from this memory (bytes/s)
system.mem_ctrls.bw_read::.cpu.data          81727414                       # Total read bandwidth from this memory (bytes/s)
system.mem_ctrls.bw_read::total              81999342                       # Total read bandwidth from this memory (bytes/s)
system.mem_ctrls.bw_inst_read::.cpu.inst       271927                       # Instruction read bandwidth from this memory (bytes/s)
system.mem_ctrls.bw_inst_read::total           271927                       # Instruction read bandwidth from this memory (bytes/s)
system.mem_ctrls.bw_write::.writebacks       45339704                       # Write bandwidth from this memory (bytes/s)
system.mem_ctrls.bw_write::total             45339704                       # Write bandwidth from this memory (bytes/s)
system.mem_ctrls.bw_total::.writebacks       45339704                       # Total bandwidth to/from this memory (bytes/s)
system.mem_ctrls.bw_total::.cpu.inst           271927                       # Total bandwidth to/from this memory (bytes/s)
system.mem_ctrls.bw_total::.cpu.data         81727414                       # Total bandwidth to/from this memory (bytes/s)
system.mem_ctrls.bw_total::total            127339046                       # Total bandwidth to/from this memory (bytes/s)
system.mem_ctrls.avgPriority_.writebacks::samples    111212.00                       # Average QoS priority value for accepted requests
system.mem_ctrls.avgPriority_.cpu.inst::samples       667.00                       # Average QoS priority value for accepted requests
system.mem_ctrls.avgPriority_.cpu.data::samples    200423.00                       # Average QoS priority value for accepted requests
system.mem_ctrls.priorityMinLatency      0.000000018750                       # per QoS priority minimum request to response latency (s)
system.mem_ctrls.priorityMaxLatency      0.005911200250                       # per QoS priority maximum request to response latency (s)
system.mem_ctrls.numReadWriteTurnArounds         6612                       # Number of turnarounds from READ to WRITE
system.mem_ctrls.numWriteReadTurnArounds         6612                       # Number of turnarounds from WRITE to READ
system.mem_ctrls.numStayReadState              544655                       # Number of times bus staying in READ state
system.mem_ctrls.numStayWriteState             104731                       # Number of times bus staying in WRITE state
system.mem_ctrls.readReqs                      201133                       # Number of read requests accepted
system.mem_ctrls.writeReqs                     111212                       # Number of write requests accepted
system.mem_ctrls.readBursts                    201133                       # Number of DRAM read bursts, including those serviced by the write queue
system.mem_ctrls.writeBursts                   111212                       # Number of DRAM write bursts, including those merged in the write queue
system.mem_ctrls.servicedByWrQ                     43                       # Number of DRAM read bursts serviced by the write queue
system.mem_ctrls.mergedWrBursts                     0                       # Number of DRAM write bursts merged with an existing one
system.mem_ctrls.neitherReadNorWriteReqs            0                       # Number of requests that are neither read nor write
system.mem_ctrls.perBankRdBursts::0             12777                       # Per bank write bursts
system.mem_ctrls.perBankRdBursts::1             12866                       # Per bank write bursts
system.mem_ctrls.perBankRdBursts::2             12569                       # Per bank write bursts
system.mem_ctrls.perBankRdBursts::3             12430                       # Per bank write bursts
system.mem_ctrls.perBankRdBursts::4             12280                       # Per bank write bursts
system.mem_ctrls.perBankRdBursts::5             12445                       # Per bank write bursts
system.mem_ctrls.perBankRdBursts::6             12437                       # Per bank write bursts
system.mem_ctrls.perBankRdBursts::7             12392                       # Per bank write bursts
system.mem_ctrls.perBankRdBursts::8             12497                       # Per bank write bursts
system.mem_ctrls.perBankRdBursts::9             12443                       # Per bank write bursts
system.mem_ctrls.perBankRdBursts::10            12463                       # Per bank write bursts
system.mem_ctrls.perBankRdBursts::11            12828                       # Per bank write bursts
system.mem_ctrls.perBankRdBursts::12            12669                       # Per bank write bursts
system.mem_ctrls.perBankRdBursts::13            12651                       # Per bank write bursts
system.mem_ctrls.perBankRdBursts::14            12689                       # Per bank write bursts
system.mem_ctrls.perBankRdBursts::15            12654                       # Per bank write bursts
system.mem_ctrls.perBankWrBursts::0              7100                       # Per bank write bursts
system.mem_ctrls.perBankWrBursts::1              7208                       # Per bank write bursts
system.mem_ctrls.perBankWrBursts::2              6994                       # Per bank write bursts
system.mem_ctrls.perBankWrBursts::3              6922                       # Per bank write bursts
system.mem_ctrls.perBankWrBursts::4              6935                       # Per bank write bursts
system.mem_ctrls.perBankWrBursts::5              6813                       # Per bank write bursts
system.mem_ctrls.perBankWrBursts::6              6801                       # Per bank write bursts
system.mem_ctrls.perBankWrBursts::7              6744                       # Per bank write bursts
system.mem_ctrls.perBankWrBursts::8              6834                       # Per bank write bursts
system.mem_ctrls.perBankWrBursts::9              6859                       # Per bank write bursts
system.mem_ctrls.perBankWrBursts::10             6782                       # Per bank write bursts
system.mem_ctrls.perBankWrBursts::11             7056                       # Per bank write bursts
system.mem_ctrls.perBankWrBursts::12             7005                       # Per bank write bursts
system.mem_ctrls.perBankWrBursts::13             6974                       # Per bank write bursts
system.mem_ctrls.perBankWrBursts::14             7067                       # Per bank write bursts
system.mem_ctrls.perBankWrBursts::15             7092                       # Per bank write bursts
system.mem_ctrls.avgRdQLen                       1.04                       # Average read queue length when enqueuing
system.mem_ctrls.avgWrQLen                      24.62                       # Average write queue length when enqueuing
system.mem_ctrls.totQLat                   2825366000                       # Total ticks spent queuing
system.mem_ctrls.totBusLat                 1005450000                       # Total ticks spent in databus transfers
system.mem_ctrls.totMemAccLat              6595803500                       # Total ticks spent from burst creation until serviced by the DRAM
system.mem_ctrls.avgQLat                     14050.26                       # Average queueing delay per DRAM burst
system.mem_ctrls.avgBusLat                    5000.00                       # Average bus latency per DRAM burst
system.mem_ctrls.avgMemAccLat                32800.26                       # Average memory access latency per DRAM burst
system.mem_ctrls.numRdRetry                         0                       # Number of times read queue was full causing retry
system.mem_ctrls.numWrRetry                         0                       # Number of times write queue was full causing retry
system.mem_ctrls.readRowHits                   132067                       # Number of row buffer hits during reads
system.mem_ctrls.writeRowHits                   69463                       # Number of row buffer hits during writes
system.mem_ctrls.readRowHitRate                 65.68                       # Row buffer hit rate for reads
system.mem_ctrls.writeRowHitRate                62.46                       # Row buffer hit rate for writes
system.mem_ctrls.readPktSize::0                     0                       # Read request sizes (log2)
system.mem_ctrls.readPktSize::1                     0                       # Read request sizes (log2)
system.mem_ctrls.readPktSize::2                     0                       # Read request sizes (log2)
system.mem_ctrls.readPktSize::3                     0                       # Read request sizes (log2)
system.mem_ctrls.readPktSize::4                     0                       # Read request sizes (log2)
system.mem_ctrls.readPktSize::5                     0                       # Read request sizes (log2)
system.mem_ctrls.readPktSize::6                201133                       # Read request sizes (log2)
system.mem_ctrls.writePktSize::0                    0                       # Write request sizes (log2)
system.mem_ctrls.writePktSize::1                    0                       # Write request sizes (log2)
system.mem_ctrls.writePktSize::2                    0                       # Write request sizes (log2)
system.mem_ctrls.writePktSize::3                    0                       # Write request sizes (log2)
system.mem_ctrls.writePktSize::4                    0                       # Write request sizes (log2)
system.mem_ctrls.writePktSize::5                    0                       # Write request sizes (log2)
system.mem_ctrls.writePktSize::6               111212                       # Write request sizes (log2)
system.mem_ctrls.rdQLenPdf::0                  152553                       # What read queue length does an incoming req see
system.mem_ctrls.rdQLenPdf::1                   48063                       # What read queue length does an incoming req see
system.mem_ctrls.rdQLenPdf::2                     294                       # What read queue length does an incoming req see
system.mem_ctrls.rdQLenPdf::3                     179                       # What read queue length does an incoming req see
system.mem_ctrls.rdQLenPdf::4                       1                       # What read queue length does an incoming req see
system.mem_ctrls.rdQLenPdf::5                       0                       # What read queue length does an incoming req see
system.mem_ctrls.rdQLenPdf::6                       0                       # What read queue length does an incoming req see
system.mem_ctrls.rdQLenPdf::7                       0                       # What read queue length does an incoming req see
system.mem_ctrls.rdQLenPdf::8                       0                       # What read queue length does an incoming req see
system.mem_ctrls.rdQLenPdf::9                       0                       # What read queue length does an incoming req see
system.mem_ctrls.rdQLenPdf::10                      0                       # What read queue length does an incoming req see
system.mem_ctrls.rdQLenPdf::11                      0                       # What read queue length does an incoming req see
system.mem_ctrls.rdQLenPdf::12                      0                       # What read queue length does an incoming req see
system.mem_ctrls.rdQLenPdf::13                      0                       # What read queue length does an incoming req see
system.mem_ctrls.rdQLenPdf::14                      0                       # What read queue length does an incoming req see
system.mem_ctrls.rdQLenPdf::15                      0                       # What read queue length does an incoming req see
system.mem_ctrls.rdQLenPdf::16                      0                       # What read queue length does an incoming req see
system.mem_ctrls.rdQLenPdf::17                      0                       # What read queue length does an incoming req see
system.mem_ctrls.rdQLenPdf::18                      0                       # What read queue length does an incoming req see
system.mem_ctrls.rdQLenPdf::19                      0                       # What read queue length does an incoming req see
system.mem_ctrls.rdQLenPdf::20                      0                       # What read queue length does an incoming req see
system.mem_ctrls.rdQLenPdf::21                      0                       # What read queue length does an incoming req see
system.mem_ctrls.rdQLenPdf::22                      0                       # What read queue length does an incoming req see
system.mem_ctrls.rdQLenPdf::23                      0                       # What read queue length does an incoming req see
system.mem_ctrls.rdQLenPdf::24                      0                       # What read queue length does an incoming req see
system.mem_ctrls.rdQLenPdf::25                      0                       # What read queue length does an incoming req see
system.mem_ctrls.rdQLenPdf::26                      0                       # What read queue length does an incoming req see
system.mem_ctrls.rdQLenPdf::27                      0                       # What read queue length does an incoming req see
system.mem_ctrls.rdQLenPdf::28                      0                       # What read queue length does an incoming req see
system.mem_ctrls.rdQLenPdf::29                      0                       # What read queue length does an incoming req see
system.mem_ctrls.rdQLenPdf::30                      0                       # What read queue length does an incoming req see
system.mem_ctrls.rdQLenPdf::31                      0                       # What read queue length does an incoming req see
system.mem_ctrls.wrQLenPdf::0                       1                       # What write queue length does an incoming req see
system.mem_ctrls.wrQLenPdf::1                       1                       # What write queue length does an incoming req see
system.mem_ctrls.wrQLenPdf::2                       1                       # What write queue length does an incoming req see
system.mem_ctrls.wrQLenPdf::3                       1                       # What write queue length does an incoming req see
system.mem_ctrls.wrQLenPdf::4                       1                       # What write queue length does an incoming req see
system.mem_ctrls.wrQLenPdf::5                       1                       # What write queue length does an incoming req see
system.mem_ctrls.wrQLenPdf::6                       1                       # What write queue length does an incoming req see
system.mem_ctrls.wrQLenPdf::7                       1                       # What write queue length does an incoming req see
system.mem_ctrls.wrQLenPdf::8                       1                       # What write queue length does an incoming req see
system.mem_ctrls.wrQLenPdf::9                       1                       # What write queue length does an incoming req see
system.mem_ctrls.wrQLenPdf::10                      1                       # What write queue length does an incoming req see
system.mem_ctrls.wrQLenPdf::11                      1                       # What write queue length does an incoming req see
system.mem_ctrls.wrQLenPdf::12                      1                       # What write queue length does an incoming req see
system.mem_ctrls.wrQLenPdf::13                      1                       # What write queue length does an incoming req see
system.mem_ctrls.wrQLenPdf::14                      1                       # What write queue length does an incoming req see
system.mem_ctrls.wrQLenPdf::15                   2491                       # What write queue length does an incoming req see
system.mem_ctrls.wrQLenPdf::16                   2632                       # What write queue length does an incoming req see
system.mem_ctrls.wrQLenPdf::17                   6180                       # What write queue length does an incoming req see
system.mem_ctrls.wrQLenPdf::18                   6618                       # What write queue length does an incoming req see
system.mem_ctrls.wrQLenPdf::19                   6667                       # What write queue length does an incoming req see
system.mem_ctrls.wrQLenPdf::20                   6665                       # What write queue length does an incoming req see
system.mem_ctrls.wrQLenPdf::21                   6744                       # What write queue length does an incoming req see
system.mem_ctrls.wrQLenPdf::22                   6702                       # What write queue length does an incoming req see
system.mem_ctrls.wrQLenPdf::23                   6686                       # What write queue length does an incoming req see
system.mem_ctrls.wrQLenPdf::24                   6683                       # What write queue length does an incoming req see
system.mem_ctrls.wrQLenPdf::25                   6645                       # What write queue length does an incoming req see
system.mem_ctrls.wrQLenPdf::26                   6670                       # What write queue length does an incoming req see
system.mem_ctrls.wrQLenPdf::27                   6640                       # What write queue length does an incoming req see
system.mem_ctrls.wrQLenPdf::28                   6641                       # What write queue length does an incoming req see
system.mem_ctrls.wrQLenPdf::29                   6649                       # What write queue length does an incoming req see
system.mem_ctrls.wrQLenPdf::30                   6619                       # What write queue length does an incoming req see
system.mem_ctrls.wrQLenPdf::31                   6652                       # What write queue length does an incoming req see
system.mem_ctrls.wrQLenPdf::32                   6612                       # What write queue length does an incoming req see
system.mem_ctrls.wrQLenPdf::33                      1                       # What write queue length does an incoming req see
system.mem_ctrls.wrQLenPdf::34                      0                       # What write queue length does an incoming req see
system.mem_ctrls.wrQLenPdf::35                      0                       # What write queue length does an incoming req see
system.mem_ctrls.wrQLenPdf::36                      0                       # What write queue length does an incoming req see
system.mem_ctrls.wrQLenPdf::37                      0                       # What write queue length does an incoming req see
system.mem_ctrls.wrQLenPdf::38                      0                       # What write queue length does an incoming req see
system.mem_ctrls.wrQLenPdf::39                      0                       # What write queue length does an incoming req see
system.mem_ctrls.wrQLenPdf::40                      0                       # What write queue length does an incoming req see
system.mem_ctrls.wrQLenPdf::41                      0                       # What write queue length does an incoming req see
system.mem_ctrls.wrQLenPdf::42                      0                       # What write queue length does an incoming req see
system.mem_ctrls.wrQLenPdf::43                      0                       # What write queue length does an incoming req see
system.mem_ctrls.wrQLenPdf::44                      0                       # What write queue length does an incoming req see
system.mem_ctrls.wrQLenPdf::45                      0                       # What write queue length does an incoming req see
system.mem_ctrls.wrQLenPdf::46                      0                       # What write queue length does an incoming req see
system.mem_ctrls.wrQLenPdf::47                      0                       # What write queue length does an incoming req see
system.mem_ctrls.wrQLenPdf::48                      0                       # What write queue length does an incoming req see
system.mem_ctrls.wrQLenPdf::49                      0                       # What write queue length does an incoming req see
system.mem_ctrls.wrQLenPdf::50                      0                       # What write queue length does an incoming req see
system.mem_ctrls.wrQLenPdf::51                      0                       # What write queue length does an incoming req see
system.mem_ctrls.wrQLenPdf::52                      0                       # What write queue length does an incoming req see
system.mem_ctrls.wrQLenPdf::53                      0                       # What write queue length does an incoming req see
system.mem_ctrls.wrQLenPdf::54                      0                       # What write queue length does an incoming req see
system.mem_ctrls.wrQLenPdf::55                      0                       # What write queue length does an incoming req see
system.mem_ctrls.wrQLenPdf::56                      0                       # What write queue length does an incoming req see
system.mem_ctrls.wrQLenPdf::57                      0                       # What write queue length does an incoming req see
system.mem_ctrls.wrQLenPdf::58                      0                       # What write queue length does an incoming req see
system.mem_ctrls.wrQLenPdf::59                      0                       # What write queue length does an incoming req see
system.mem_ctrls.wrQLenPdf::60                      0                       # What write queue length does an incoming req see
system.mem_ctrls.wrQLenPdf::61                      0                       # What write queue length does an incoming req see
system.mem_ctrls.wrQLenPdf::62                      0                       # What write queue length does an incoming req see
system.mem_ctrls.wrQLenPdf::63                      0                       # What write queue length does an incoming req see
system.mem_ctrls.bytesPerActivate::samples       110744                       # Bytes accessed per row activation
system.mem_ctrls.bytesPerActivate::mean    180.465506                       # Bytes accessed per row activation
system.mem_ctrls.bytesPerActivate::gmean   106.818704                       # Bytes accessed per row activation
system.mem_ctrls.bytesPerActivate::stdev   245.279883                       # Bytes accessed per row activation
system.mem_ctrls.bytesPerActivate::0-127        77051     69.58%     69.58% # Bytes accessed per row activation
system.mem_ctrls.bytesPerActivate::128-255        11501     10.39%     79.96% # Bytes accessed per row activation
system.mem_ctrls.bytesPerActivate::256-383         4608      4.16%     84.12% # Bytes accessed per row activation
system.mem_ctrls.bytesPerActivate::384-511         1932      1.74%     85.87% # Bytes accessed per row activation
system.mem_ctrls.bytesPerActivate::512-639         8684      7.84%     93.71% # Bytes accessed per row activation
system.mem_ctrls.bytesPerActivate::640-767          679      0.61%     94.32% # Bytes accessed per row activation
system.mem_ctrls.bytesPerActivate::768-895          387      0.35%     94.67% # Bytes accessed per row activation
system.mem_ctrls.bytesPerActivate::896-1023          446      0.40%     95.07% # Bytes accessed per row activation
system.mem_ctrls.bytesPerActivate::1024-1151         5456      4.93%    100.00% # Bytes accessed per row activation
system.mem_ctrls.bytesPerActivate::total       110744                       # Bytes accessed per row activation
system.mem_ctrls.rdPerTurnAround::samples         6612                       # Reads before turning the bus around for writes
system.mem_ctrls.rdPerTurnAround::mean      30.411525                       # Reads before turning the bus around for writes
system.mem_ctrls.rdPerTurnAround::gmean     23.908685                       # Reads before turning the bus around for writes
system.mem_ctrls.rdPerTurnAround::stdev     52.695265                       # Reads before turning the bus around for writes
system.mem_ctrls.rdPerTurnAround::0-127          6443     97.44%     97.44% # Reads before turning the bus around for writes
system.mem_ctrls.rdPerTurnAround::128-255           37      0.56%     98.00% # Reads before turning the bus around for writes
system.mem_ctrls.rdPerTurnAround::256-383          129      1.95%     99.95% # Reads before turning the bus around for writes
system.mem_ctrls.rdPerTurnAround::640-767            1      0.02%     99.97% # Reads before turning the bus around for writes
system.mem_ctrls.rdPerTurnAround::1664-1791            1      0.02%     99.98% # Reads before turning the bus around for writes
system.mem_ctrls.rdPerTurnAround::2432-2559            1      0.02%    100.00% # Reads before turning the bus around for writes
system.mem_ctrls.rdPerTurnAround::total          6612                       # Reads before turning the bus around for writes
system.mem_ctrls.wrPerTurnAround::samples         6612                       # Writes before turning the bus around for reads
system.mem_ctrls.wrPerTurnAround::mean      16.815789                       # Writes before turning the bus around for reads
[...]
system.cpu.icache.tags.occ_percent::total     0.711080                       # Average percentage of cache occupancy
system.cpu.icache.tags.occ_task_id_blocks::1024          441                       # Occupied blocks per task id
system.cpu.icache.tags.age_task_id_blocks_1024::4          441                       # Occupied blocks per task id
system.cpu.icache.tags.occ_task_id_percent::1024     0.861328                       # Percentage of cache occupancy per task id
system.cpu.icache.tags.tag_accesses          20397761                       # Number of tag accesses
system.cpu.icache.tags.data_accesses         20397761                       # Number of data accesses
system.cpu.dtb.walker.pwrStateResidencyTicks::UNDEFINED 156983114000                       # Cumulative time (in ticks) in various power states
system.cpu.dtb.stage2_mmu.stage2_tlb.walker.pwrStateResidencyTicks::UNDEFINED 156983114000                       # Cumulative time (in ticks) in various power states
system.cpu.dcache.pwrStateResidencyTicks::UNDEFINED 156983114000                       # Cumulative time (in ticks) in various power states
system.cpu.dcache.demand_hits::.cpu.data     51627422                       # number of demand (read+write) hits
system.cpu.dcache.demand_hits::total         51627422                       # number of demand (read+write) hits
system.cpu.dcache.overall_hits::.cpu.data     51627929                       # number of overall hits
system.cpu.dcache.overall_hits::total        51627929                       # number of overall hits
system.cpu.dcache.demand_misses::.cpu.data       522162                       # number of demand (read+write) misses
system.cpu.dcache.demand_misses::total         522162                       # number of demand (read+write) misses
system.cpu.dcache.overall_misses::.cpu.data       530074                       # number of overall misses
system.cpu.dcache.overall_misses::total        530074                       # number of overall misses
system.cpu.dcache.demand_miss_latency::.cpu.data  29936963000                       # number of demand (read+write) miss cycles
system.cpu.dcache.demand_miss_latency::total  29936963000                       # number of demand (read+write) miss cycles
system.cpu.dcache.overall_miss_latency::.cpu.data  29936963000                       # number of overall miss cycles
system.cpu.dcache.overall_miss_latency::total  29936963000                       # number of overall miss cycles
system.cpu.dcache.demand_accesses::.cpu.data     52149584                       # number of demand (read+write) accesses
system.cpu.dcache.demand_accesses::total     52149584                       # number of demand (read+write) accesses
system.cpu.dcache.overall_accesses::.cpu.data     52158003                       # number of overall (read+write) accesses
system.cpu.dcache.overall_accesses::total     52158003                       # number of overall (read+write) accesses
system.cpu.dcache.demand_miss_rate::.cpu.data     0.010013                       # miss rate for demand accesses
system.cpu.dcache.demand_miss_rate::total     0.010013                       # miss rate for demand accesses
system.cpu.dcache.overall_miss_rate::.cpu.data     0.010163                       # miss rate for overall accesses
system.cpu.dcache.overall_miss_rate::total     0.010163                       # miss rate for overall accesses
system.cpu.dcache.demand_avg_miss_latency::.cpu.data 57332.710921                       # average overall miss latency
system.cpu.dcache.demand_avg_miss_latency::total 57332.710921                       # average overall miss latency
system.cpu.dcache.overall_avg_miss_latency::.cpu.data 56476.950388                       # average overall miss latency
system.cpu.dcache.overall_avg_miss_latency::total 56476.950388                       # average overall miss latency
system.cpu.dcache.blocked_cycles::no_mshrs        98966                       # number of cycles access was blocked
system.cpu.dcache.blocked_cycles::no_targets            0                       # number of cycles access was blocked
system.cpu.dcache.blocked::no_mshrs              3385                       # number of cycles access was blocked
system.cpu.dcache.blocked::no_targets               0                       # number of cycles access was blocked
system.cpu.dcache.avg_blocked_cycles::no_mshrs    29.236632                       # average number of cycles each access was blocked
system.cpu.dcache.avg_blocked_cycles::no_targets          nan                       # average number of cycles each access was blocked
system.cpu.dcache.writebacks::.writebacks       402127                       # number of writebacks
system.cpu.dcache.writebacks::total            402127                       # number of writebacks
system.cpu.dcache.demand_mshr_hits::.cpu.data        52446                       # number of demand (read+write) MSHR hits
system.cpu.dcache.demand_mshr_hits::total        52446                       # number of demand (read+write) MSHR hits
system.cpu.dcache.overall_mshr_hits::.cpu.data        52446                       # number of overall MSHR hits
system.cpu.dcache.overall_mshr_hits::total        52446                       # number of overall MSHR hits
system.cpu.dcache.demand_mshr_misses::.cpu.data       469716                       # number of demand (read+write) MSHR misses
system.cpu.dcache.demand_mshr_misses::total       469716                       # number of demand (read+write) MSHR misses
system.cpu.dcache.overall_mshr_misses::.cpu.data       477623                       # number of overall MSHR misses
system.cpu.dcache.overall_mshr_misses::total       477623                       # number of overall MSHR misses
system.cpu.dcache.demand_mshr_miss_latency::.cpu.data  27326723000                       # number of demand (read+write) MSHR miss cycles
system.cpu.dcache.demand_mshr_miss_latency::total  27326723000                       # number of demand (read+write) MSHR miss cycles
system.cpu.dcache.overall_mshr_miss_latency::.cpu.data  28155707999                       # number of overall MSHR miss cycles
system.cpu.dcache.overall_mshr_miss_latency::total  28155707999                       # number of overall MSHR miss cycles
system.cpu.dcache.demand_mshr_miss_rate::.cpu.data     0.009007                       # mshr miss rate for demand accesses
system.cpu.dcache.demand_mshr_miss_rate::total     0.009007                       # mshr miss rate for demand accesses
system.cpu.dcache.overall_mshr_miss_rate::.cpu.data     0.009157                       # mshr miss rate for overall accesses
system.cpu.dcache.overall_mshr_miss_rate::total     0.009157                       # mshr miss rate for overall accesses
system.cpu.dcache.demand_avg_mshr_miss_latency::.cpu.data 58177.117663                       # average overall mshr miss latency
system.cpu.dcache.demand_avg_mshr_miss_latency::total 58177.117663                       # average overall mshr miss latency
system.cpu.dcache.overall_avg_mshr_miss_latency::.cpu.data 58949.648570                       # average overall mshr miss latency
system.cpu.dcache.overall_avg_mshr_miss_latency::total 58949.648570                       # average overall mshr miss latency
system.cpu.dcache.replacements                 475579                       # number of replacements
system.cpu.dcache.ReadReq_hits::.cpu.data     40929461                       # number of ReadReq hits
system.cpu.dcache.ReadReq_hits::total        40929461                       # number of ReadReq hits
system.cpu.dcache.ReadReq_misses::.cpu.data       241944                       # number of ReadReq misses
system.cpu.dcache.ReadReq_misses::total        241944                       # number of ReadReq misses
system.cpu.dcache.ReadReq_miss_latency::.cpu.data  10719240000                       # number of ReadReq miss cycles
system.cpu.dcache.ReadReq_miss_latency::total  10719240000                       # number of ReadReq miss cycles
system.cpu.dcache.ReadReq_accesses::.cpu.data     41171405                       # number of ReadReq accesses(hits+misses)
system.cpu.dcache.ReadReq_accesses::total     41171405                       # number of ReadReq accesses(hits+misses)
system.cpu.dcache.ReadReq_miss_rate::.cpu.data     0.005877                       # miss rate for ReadReq accesses
system.cpu.dcache.ReadReq_miss_rate::total     0.005877                       # miss rate for ReadReq accesses
system.cpu.dcache.ReadReq_avg_miss_latency::.cpu.data 44304.632477                       # average ReadReq miss latency
system.cpu.dcache.ReadReq_avg_miss_latency::total 44304.632477                       # average ReadReq miss latency
system.cpu.dcache.ReadReq_mshr_hits::.cpu.data          497                       # number of ReadReq MSHR hits
system.cpu.dcache.ReadReq_mshr_hits::total          497                       # number of ReadReq MSHR hits
system.cpu.dcache.ReadReq_mshr_misses::.cpu.data       241447                       # number of ReadReq MSHR misses
system.cpu.dcache.ReadReq_mshr_misses::total       241447                       # number of ReadReq MSHR misses
system.cpu.dcache.ReadReq_mshr_miss_latency::.cpu.data  10215874000                       # number of ReadReq MSHR miss cycles
system.cpu.dcache.ReadReq_mshr_miss_latency::total  10215874000                       # number of ReadReq MSHR miss cycles
system.cpu.dcache.ReadReq_mshr_miss_rate::.cpu.data     0.005864                       # mshr miss rate for ReadReq accesses
system.cpu.dcache.ReadReq_mshr_miss_rate::total     0.005864                       # mshr miss rate for ReadReq accesses
system.cpu.dcache.ReadReq_avg_mshr_miss_latency::.cpu.data 42311.041347                       # average ReadReq mshr miss latency
system.cpu.dcache.ReadReq_avg_mshr_miss_latency::total 42311.041347                       # average ReadReq mshr miss latency
system.cpu.dcache.WriteReq_hits::.cpu.data     10697961                       # number of WriteReq hits
system.cpu.dcache.WriteReq_hits::total       10697961                       # number of WriteReq hits
system.cpu.dcache.WriteReq_misses::.cpu.data       280218                       # number of WriteReq misses
system.cpu.dcache.WriteReq_misses::total       280218                       # number of WriteReq misses
system.cpu.dcache.WriteReq_miss_latency::.cpu.data  19217723000                       # number of WriteReq miss cycles
system.cpu.dcache.WriteReq_miss_latency::total  19217723000                       # number of WriteReq miss cycles
system.cpu.dcache.WriteReq_accesses::.cpu.data     10978179                       # number of WriteReq accesses(hits+misses)
system.cpu.dcache.WriteReq_accesses::total     10978179                       # number of WriteReq accesses(hits+misses)
system.cpu.dcache.WriteReq_miss_rate::.cpu.data     0.025525                       # miss rate for WriteReq accesses
system.cpu.dcache.WriteReq_miss_rate::total     0.025525                       # miss rate for WriteReq accesses
system.cpu.dcache.WriteReq_avg_miss_latency::.cpu.data 68581.329536                       # average WriteReq miss latency
system.cpu.dcache.WriteReq_avg_miss_latency::total 68581.329536                       # average WriteReq miss latency
system.cpu.dcache.WriteReq_mshr_hits::.cpu.data        51949                       # number of WriteReq MSHR hits
system.cpu.dcache.WriteReq_mshr_hits::total        51949                       # number of WriteReq MSHR hits
system.cpu.dcache.WriteReq_mshr_misses::.cpu.data       228269                       # number of WriteReq MSHR misses
system.cpu.dcache.WriteReq_mshr_misses::total       228269                       # number of WriteReq MSHR misses
system.cpu.dcache.WriteReq_mshr_miss_latency::.cpu.data  17110849000                       # number of WriteReq MSHR miss cycles
system.cpu.dcache.WriteReq_mshr_miss_latency::total  17110849000                       # number of WriteReq MSHR miss cycles
system.cpu.dcache.WriteReq_mshr_miss_rate::.cpu.data     0.020793                       # mshr miss rate for WriteReq accesses
system.cpu.dcache.WriteReq_mshr_miss_rate::total     0.020793                       # mshr miss rate for WriteReq accesses
system.cpu.dcache.WriteReq_avg_mshr_miss_latency::.cpu.data 74959.144693                       # average WriteReq mshr miss latency
system.cpu.dcache.WriteReq_avg_mshr_miss_latency::total 74959.144693                       # average WriteReq mshr miss latency
system.cpu.dcache.SoftPFReq_hits::.cpu.data          507                       # number of SoftPFReq hits
system.cpu.dcache.SoftPFReq_hits::total           507                       # number of SoftPFReq hits
system.cpu.dcache.SoftPFReq_misses::.cpu.data         7912                       # number of SoftPFReq misses
system.cpu.dcache.SoftPFReq_misses::total         7912                       # number of SoftPFReq misses
system.cpu.dcache.SoftPFReq_accesses::.cpu.data         8419                       # number of SoftPFReq accesses(hits+misses)
system.cpu.dcache.SoftPFReq_accesses::total         8419                       # number of SoftPFReq accesses(hits+misses)
system.cpu.dcache.SoftPFReq_miss_rate::.cpu.data     0.939779                       # miss rate for SoftPFReq accesses
system.cpu.dcache.SoftPFReq_miss_rate::total     0.939779                       # miss rate for SoftPFReq accesses
system.cpu.dcache.SoftPFReq_mshr_misses::.cpu.data         7907                       # number of SoftPFReq MSHR misses
system.cpu.dcache.SoftPFReq_mshr_misses::total         7907                       # number of SoftPFReq MSHR misses
system.cpu.dcache.SoftPFReq_mshr_miss_latency::.cpu.data    828984999                       # number of SoftPFReq MSHR miss cycles
system.cpu.dcache.SoftPFReq_mshr_miss_latency::total    828984999                       # number of SoftPFReq MSHR miss cycles
system.cpu.dcache.SoftPFReq_mshr_miss_rate::.cpu.data     0.939185                       # mshr miss rate for SoftPFReq accesses
system.cpu.dcache.SoftPFReq_mshr_miss_rate::total     0.939185                       # mshr miss rate for SoftPFReq accesses
system.cpu.dcache.SoftPFReq_avg_mshr_miss_latency::.cpu.data 104841.912103                       # average SoftPFReq mshr miss latency
system.cpu.dcache.SoftPFReq_avg_mshr_miss_latency::total 104841.912103                       # average SoftPFReq mshr miss latency
system.cpu.dcache.LoadLockedReq_hits::.cpu.data           34                       # number of LoadLockedReq hits
system.cpu.dcache.LoadLockedReq_hits::total           34                       # number of LoadLockedReq hits
system.cpu.dcache.LoadLockedReq_misses::.cpu.data            4                       # number of LoadLockedReq misses
system.cpu.dcache.LoadLockedReq_misses::total            4                       # number of LoadLockedReq misses
system.cpu.dcache.LoadLockedReq_miss_latency::.cpu.data       311000                       # number of LoadLockedReq miss cycles
system.cpu.dcache.LoadLockedReq_miss_latency::total       311000                       # number of LoadLockedReq miss cycles
system.cpu.dcache.LoadLockedReq_accesses::.cpu.data           38                       # number of LoadLockedReq accesses(hits+misses)
system.cpu.dcache.LoadLockedReq_accesses::total           38                       # number of LoadLockedReq accesses(hits+misses)
system.cpu.dcache.LoadLockedReq_miss_rate::.cpu.data     0.105263                       # miss rate for LoadLockedReq accesses
system.cpu.dcache.LoadLockedReq_miss_rate::total     0.105263                       # miss rate for LoadLockedReq accesses
system.cpu.dcache.LoadLockedReq_avg_miss_latency::.cpu.data        77750                       # average LoadLockedReq miss latency
system.cpu.dcache.LoadLockedReq_avg_miss_latency::total        77750                       # average LoadLockedReq miss latency
system.cpu.dcache.LoadLockedReq_mshr_misses::.cpu.data            4                       # number of LoadLockedReq MSHR misses
system.cpu.dcache.LoadLockedReq_mshr_misses::total            4                       # number of LoadLockedReq MSHR misses
system.cpu.dcache.LoadLockedReq_mshr_miss_latency::.cpu.data       303000                       # number of LoadLockedReq MSHR miss cycles
system.cpu.dcache.LoadLockedReq_mshr_miss_latency::total       303000                       # number of LoadLockedReq MSHR miss cycles
system.cpu.dcache.LoadLockedReq_mshr_miss_rate::.cpu.data     0.105263                       # mshr miss rate for LoadLockedReq accesses
system.cpu.dcache.LoadLockedReq_mshr_miss_rate::total     0.105263                       # mshr miss rate for LoadLockedReq accesses
system.cpu.dcache.LoadLockedReq_avg_mshr_miss_latency::.cpu.data        75750                       # average LoadLockedReq mshr miss latency
system.cpu.dcache.LoadLockedReq_avg_mshr_miss_latency::total        75750                       # average LoadLockedReq mshr miss latency
system.cpu.dcache.StoreCondReq_hits::.cpu.data           38                       # number of StoreCondReq hits
system.cpu.dcache.StoreCondReq_hits::total           38                       # number of StoreCondReq hits
system.cpu.dcache.StoreCondReq_accesses::.cpu.data           38                       # number of StoreCondReq accesses(hits+misses)
system.cpu.dcache.StoreCondReq_accesses::total           38                       # number of StoreCondReq accesses(hits+misses)
system.cpu.dcache.tags.pwrStateResidencyTicks::UNDEFINED 156983114000                       # Cumulative time (in ticks) in various power states
system.cpu.dcache.tags.tagsinuse          2022.674456                       # Cycle average of tags in use
system.cpu.dcache.tags.total_refs            52105628                       # Total number of references to valid blocks.
system.cpu.dcache.tags.sampled_refs            477627                       # Sample count of references to valid blocks.
system.cpu.dcache.tags.avg_refs            109.092719                       # Average number of references to valid blocks.
system.cpu.dcache.tags.warmup_cycle            223000                       # Cycle when the warmup percentage was hit.
system.cpu.dcache.tags.occ_blocks::.cpu.data  2022.674456                       # Average occupied blocks per requestor
system.cpu.dcache.tags.occ_percent::.cpu.data     0.987634                       # Average percentage of cache occupancy
system.cpu.dcache.tags.occ_percent::total     0.987634                       # Average percentage of cache occupancy
system.cpu.dcache.tags.occ_task_id_blocks::1024         2048                       # Occupied blocks per task id
system.cpu.dcache.tags.age_task_id_blocks_1024::0           69                       # Occupied blocks per task id
system.cpu.dcache.tags.age_task_id_blocks_1024::1          535                       # Occupied blocks per task id
system.cpu.dcache.tags.age_task_id_blocks_1024::2         1367                       # Occupied blocks per task id
system.cpu.dcache.tags.age_task_id_blocks_1024::3           71                       # Occupied blocks per task id
system.cpu.dcache.tags.age_task_id_blocks_1024::4            6                       # Occupied blocks per task id
system.cpu.dcache.tags.occ_task_id_percent::1024            1                       # Percentage of cache occupancy per task id
system.cpu.dcache.tags.tag_accesses         417742259                       # Number of tag accesses
system.cpu.dcache.tags.data_accesses        417742259                       # Number of data accesses
system.cpu.itb.walker.pwrStateResidencyTicks::UNDEFINED 156983114000                       # Cumulative time (in ticks) in various power states
system.cpu.itb.stage2_mmu.stage2_tlb.walker.pwrStateResidencyTicks::UNDEFINED 156983114000                       # Cumulative time (in ticks) in various power states

---------- End Simulation Statistics   ----------
