
---------- Begin Simulation Statistics ----------
final_tick                               149165861000                       # Number of ticks from beginning of simulation (restored from checkpoints and never reset)
host_inst_rate                                 353338                       # Simulator instruction rate (inst/s)
host_mem_usage                                 716704                       # Number of bytes of host memory used
host_op_rate                                   353350                       # Simulator op (including micro ops) rate (op/s)
host_seconds                                   283.02                       # Real time elapsed on the host
host_tick_rate                              527059055                       # Simulator tick rate (ticks/s)
sim_freq                                 1000000000000                       # Frequency of simulated ticks
sim_insts                                   100000000                       # Number of instructions simulated
sim_ops                                     100003445                       # Number of ops (including micro ops) simulated
sim_seconds                                  0.149166                       # Number of seconds simulated
sim_ticks                                149165861000                       # Number of ticks simulated
system.cpu.branchPred.BTBCorrect                    0                       # Number of correct BTB predictions (this stat may not work properly.
system.cpu.branchPred.BTBHitPct             99.496951                       # BTB Hit Percentage
system.cpu.branchPred.BTBHits                  596726                       # Number of BTB hits
system.cpu.branchPred.BTBLookups               599743                       # Number of BTB lookups
system.cpu.branchPred.RASInCorrect                  7                       # Number of incorrect RAS predictions.
system.cpu.branchPred.condIncorrect               844                       # Number of conditional branches incorrect
system.cpu.branchPred.condPredicted            599944                       # Number of conditional branches predicted
system.cpu.branchPred.indirectHits                166                       # Number of indirect target hits.
system.cpu.branchPred.indirectLookups             389                       # Number of indirect predictor lookups.
system.cpu.branchPred.indirectMisses              223                       # Number of indirect misses.
system.cpu.branchPred.lookups                  602024                       # Number of BP lookups
system.cpu.branchPred.usedRAS                     551                       # Number of times the RAS was used to get a target.
system.cpu.branchPredindirectMispredicted          114                       # Number of mispredicted indirect branches.
system.cpu.committedInsts                   100000000                       # Number of instructions committed
system.cpu.committedOps                     100003445                       # Number of ops (including micro ops) committed
system.cpu.cpi                               1.491659                       # CPI: cycles per instruction
system.cpu.discardedOps                          2589                       # Number of ops (including micro ops) which were discarded before commit
system.cpu.dtb.accesses                             0                       # DTB accesses
system.cpu.dtb.align_faults                         0                       # Number of TLB faults due to alignment restrictions
system.cpu.dtb.domain_faults                        0                       # Number of TLB faults due to domain restrictions
system.cpu.dtb.flush_entries                        0                       # Number of entries that have been flushed from TLB
system.cpu.dtb.flush_tlb                            0                       # Number of times complete TLB was flushed
system.cpu.dtb.flush_tlb_asid                       0                       # Number of times TLB was flushed by ASID
system.cpu.dtb.flush_tlb_mva                        0                       # Number of times TLB was flushed by MVA
system.cpu.dtb.flush_tlb_mva_asid                   0                       # Number of times TLB was flushed by MVA & ASID
system.cpu.dtb.hits                                 0                       # DTB hits
system.cpu.dtb.inst_accesses                        0                       # ITB inst accesses
system.cpu.dtb.inst_hits                            0                       # ITB inst hits
system.cpu.dtb.inst_misses                          0                       # ITB inst misses
system.cpu.dtb.misses                               0                       # DTB misses
system.cpu.dtb.perms_faults                         0                       # Number of TLB faults due to permissions restrictions
system.cpu.dtb.prefetch_faults                      0                       # Number of TLB faults due to prefetch
system.cpu.dtb.read_accesses                        0                       # DTB read accesses
system.cpu.dtb.read_hits                            0                       # DTB read hits
system.cpu.dtb.read_misses                          0                       # DTB read misses
system.cpu.dtb.stage2_mmu.stage2_tlb.accesses            0                       # DTB accesses
system.cpu.dtb.stage2_mmu.stage2_tlb.align_faults            0                       # Number of TLB faults due to alignment restrictions
system.cpu.dtb.stage2_mmu.stage2_tlb.domain_faults            0                       # Number of TLB faults due to domain restrictions
system.cpu.dtb.stage2_mmu.stage2_tlb.flush_entries            0                       # Number of entries that have been flushed from TLB
system.cpu.dtb.stage2_mmu.stage2_tlb.flush_tlb            0                       # Number of times complete TLB was flushed
system.cpu.dtb.stage2_mmu.stage2_tlb.flush_tlb_asid            0                       # Number of times TLB was flushed by ASID
system.cpu.dtb.stage2_mmu.stage2_tlb.flush_tlb_mva            0                       # Number of times TLB was flushed by MVA
system.cpu.dtb.stage2_mmu.stage2_tlb.flush_tlb_mva_asid            0                       # Number of times TLB was flushed by MVA & ASID
system.cpu.dtb.stage2_mmu.stage2_tlb.hits            0                       # DTB hits
system.cpu.dtb.stage2_mmu.stage2_tlb.inst_accesses            0                       # ITB inst accesses
system.cpu.dtb.stage2_mmu.stage2_tlb.inst_hits            0                       # ITB inst hits
system.cpu.dtb.stage2_mmu.stage2_tlb.inst_misses            0                       # ITB inst misses
system.cpu.dtb.stage2_mmu.stage2_tlb.misses            0                       # DTB misses
system.cpu.dtb.stage2_mmu.stage2_tlb.perms_faults            0                       # Number of TLB faults due to permissions restrictions
system.cpu.dtb.stage2_mmu.stage2_tlb.prefetch_faults            0                       # Number of TLB faults due to prefetch
system.cpu.dtb.stage2_mmu.stage2_tlb.read_accesses            0                       # DTB read accesses
system.cpu.dtb.stage2_mmu.stage2_tlb.read_hits            0                       # DTB read hits
system.cpu.dtb.stage2_mmu.stage2_tlb.read_misses            0                       # DTB read misses
system.cpu.dtb.stage2_mmu.stage2_tlb.walker.walkRequestOrigin_Requested::Data            0                       # Table walker requests started/completed, data/inst
system.cpu.dtb.stage2_mmu.stage2_tlb.walker.walkRequestOrigin_Requested::Inst            0                       # Table walker requests started/completed, data/inst
system.cpu.dtb.stage2_mmu.stage2_tlb.walker.walkRequestOrigin_Requested::total            0                       # Table walker requests started/completed, data/inst
system.cpu.dtb.stage2_mmu.stage2_tlb.walker.walkRequestOrigin_Completed::Data            0                       # Table walker requests started/completed, data/inst
system.cpu.dtb.stage2_mmu.stage2_tlb.walker.walkRequestOrigin_Completed::Inst            0                       # Table walker requests started/completed, data/inst
system.cpu.dtb.stage2_mmu.stage2_tlb.walker.walkRequestOrigin_Completed::total            0                       # Table walker requests started/completed, data/inst
system.cpu.dtb.stage2_mmu.stage2_tlb.walker.walkRequestOrigin::total            0                       # Table walker requests started/completed, data/inst
system.cpu.dtb.stage2_mmu.stage2_tlb.walker.walks            0                       # Table walker walks requested
system.cpu.dtb.stage2_mmu.stage2_tlb.write_accesses            0                       # DTB write accesses
system.cpu.dtb.stage2_mmu.stage2_tlb.write_hits            0                       # DTB write hits
system.cpu.dtb.stage2_mmu.stage2_tlb.write_misses            0                       # DTB write misses
system.cpu.dtb.walker.walkRequestOrigin_Requested::Data            0                       # Table walker requests started/completed, data/inst
system.cpu.dtb.walker.walkRequestOrigin_Requested::Inst            0                       # Table walker requests started/completed, data/inst
system.cpu.dtb.walker.walkRequestOrigin_Requested::total            0                       # Table walker requests started/completed, data/inst
system.cpu.dtb.walker.walkRequestOrigin_Completed::Data            0                       # Table walker requests started/completed, data/inst
system.cpu.dtb.walker.walkRequestOrigin_Completed::Inst            0                       # Table walker requests started/completed, data/inst
system.cpu.dtb.walker.walkRequestOrigin_Completed::total            0                       # Table walker requests started/completed, data/inst
system.cpu.dtb.walker.walkRequestOrigin::total            0                       # Table walker requests started/completed, data/inst
system.cpu.dtb.walker.walks                         0                       # Table walker walks requested
system.cpu.dtb.write_accesses                       0                       # DTB write accesses
system.cpu.dtb.write_hits                           0                       # DTB write hits
system.cpu.dtb.write_misses                         0                       # DTB write misses
system.cpu.fetch2.amo_instructions                  0                       # Number of memory atomic instructions successfully decoded
system.cpu.fetch2.fp_instructions                   0                       # Number of floating point instructions successfully decoded
system.cpu.fetch2.int_instructions           49412085                       # Number of integer instructions successfully decoded
system.cpu.fetch2.load_instructions          36901211                       # Number of memory load instructions successfully decoded
system.cpu.fetch2.store_instructions         13094398                       # Number of memory store instructions successfully decoded
system.cpu.fetch2.vec_instructions                  0                       # Number of SIMD instructions successfully decoded
system.cpu.idleCycles                        35950084                       # Total number of cycles that the object has spent stopped
system.cpu.ipc                               0.670395                       # IPC: instructions per cycle
system.cpu.itb.accesses                             0                       # DTB accesses
system.cpu.itb.align_faults                         0                       # Number of TLB faults due to alignment restrictions
system.cpu.itb.domain_faults                        0                       # Number of TLB faults due to domain restrictions
system.cpu.itb.flush_entries                        0                       # Number of entries that have been flushed from TLB
system.cpu.itb.flush_tlb                            0                       # Number of times complete TLB was flushed
system.cpu.itb.flush_tlb_asid                       0                       # Number of times TLB was flushed by ASID
system.cpu.itb.flush_tlb_mva                        0                       # Number of times TLB was flushed by MVA
system.cpu.itb.flush_tlb_mva_asid                   0                       # Number of times TLB was flushed by MVA & ASID
system.cpu.itb.hits                                 0                       # DTB hits
system.cpu.itb.inst_accesses                        0                       # ITB inst accesses
system.cpu.itb.inst_hits                            0                       # ITB inst hits
system.cpu.itb.inst_misses                          0                       # ITB inst misses
system.cpu.itb.misses                               0                       # DTB misses
system.cpu.itb.perms_faults                         0                       # Number of TLB faults due to permissions restrictions
system.cpu.itb.prefetch_faults                      0                       # Number of TLB faults due to prefetch
system.cpu.itb.read_accesses                        0                       # DTB read accesses
system.cpu.itb.read_hits                            0                       # DTB read hits
system.cpu.itb.read_misses                          0                       # DTB read misses
system.cpu.itb.stage2_mmu.stage2_tlb.accesses            0                       # DTB accesses
system.cpu.itb.stage2_mmu.stage2_tlb.align_faults            0                       # Number of TLB faults due to alignment restrictions
system.cpu.itb.stage2_mmu.stage2_tlb.domain_faults            0                       # Number of TLB faults due to domain restrictions
system.cpu.itb.stage2_mmu.stage2_tlb.flush_entries            0                       # Number of entries that have been flushed from TLB
system.cpu.itb.stage2_mmu.stage2_tlb.flush_tlb            0                       # Number of times complete TLB was flushed
system.cpu.itb.stage2_mmu.stage2_tlb.flush_tlb_asid            0                       # Number of times TLB was flushed by ASID
system.cpu.itb.stage2_mmu.stage2_tlb.flush_tlb_mva            0                       # Number of times TLB was flushed by MVA
system.cpu.itb.stage2_mmu.stage2_tlb.flush_tlb_mva_asid            0                       # Number of times TLB was flushed by MVA & ASID
system.cpu.itb.stage2_mmu.stage2_tlb.hits            0                       # DTB hits
system.cpu.itb.stage2_mmu.stage2_tlb.inst_accesses            0                       # ITB inst accesses
system.cpu.itb.stage2_mmu.stage2_tlb.inst_hits            0                       # ITB inst hits
system.cpu.itb.stage2_mmu.stage2_tlb.inst_misses            0                       # ITB inst misses
system.cpu.itb.stage2_mmu.stage2_tlb.misses            0                       # DTB misses
system.cpu.itb.stage2_mmu.stage2_tlb.perms_faults            0                       # Number of TLB faults due to permissions restrictions
system.cpu.itb.stage2_mmu.stage2_tlb.prefetch_faults            0                       # Number of TLB faults due to prefetch
system.cpu.itb.stage2_mmu.stage2_tlb.read_accesses            0                       # DTB read accesses
system.cpu.itb.stage2_mmu.stage2_tlb.read_hits            0                       # DTB read hits
system.cpu.itb.stage2_mmu.stage2_tlb.read_misses            0                       # DTB read misses
system.cpu.itb.stage2_mmu.stage2_tlb.walker.walkRequestOrigin_Requested::Data            0                       # Table walker requests started/completed, data/inst
system.cpu.itb.stage2_mmu.stage2_tlb.walker.walkRequestOrigin_Requested::Inst            0                       # Table walker requests started/completed, data/inst
system.cpu.itb.stage2_mmu.stage2_tlb.walker.walkRequestOrigin_Requested::total            0                       # Table walker requests started/completed, data/inst
system.cpu.itb.stage2_mmu.stage2_tlb.walker.walkRequestOrigin_Completed::Data            0                       # Table walker requests started/completed, data/inst
system.cpu.itb.stage2_mmu.stage2_tlb.walker.walkRequestOrigin_Completed::Inst            0                       # Table walker requests started/completed, data/inst
system.cpu.itb.stage2_mmu.stage2_tlb.walker.walkRequestOrigin_Completed::total            0                       # Table walker requests started/completed, data/inst
system.cpu.itb.stage2_mmu.stage2_tlb.walker.walkRequestOrigin::total            0                       # Table walker requests started/completed, data/inst
system.cpu.itb.stage2_mmu.stage2_tlb.walker.walks            0                       # Table walker walks requested
system.cpu.itb.stage2_mmu.stage2_tlb.write_accesses            0                       # DTB write accesses
system.cpu.itb.stage2_mmu.stage2_tlb.write_hits            0                       # DTB write hits
system.cpu.itb.stage2_mmu.stage2_tlb.write_misses            0                       # DTB write misses
system.cpu.itb.walker.walkRequestOrigin_Requested::Data            0                       # Table walker requests started/completed, data/inst
system.cpu.itb.walker.walkRequestOrigin_Requested::Inst            0                       # Table walker requests started/completed, data/inst
system.cpu.itb.walker.walkRequestOrigin_Requested::total            0                       # Table walker requests started/completed, data/inst
system.cpu.itb.walker.walkRequestOrigin_Completed::Data            0                       # Table walker requests started/completed, data/inst
system.cpu.itb.walker.walkRequestOrigin_Completed::Inst            0                       # Table walker requests started/completed, data/inst
system.cpu.itb.walker.walkRequestOrigin_Completed::total            0                       # Table walker requests started/completed, data/inst
system.cpu.itb.walker.walkRequestOrigin::total            0                       # Table walker requests started/completed, data/inst
system.cpu.itb.walker.walks                         0                       # Table walker walks requested
system.cpu.itb.write_accesses                       0                       # DTB write accesses
system.cpu.itb.write_hits                           0                       # DTB write hits
system.cpu.itb.write_misses                         0                       # DTB write misses
system.cpu.numCycles                        149165861                       # number of cpu cycles simulated
system.cpu.numFetchSuspends                         0                       # Number of times Execute suspended instruction fetching
system.cpu.numWorkItemsCompleted                    0                       # number of work items this cpu completed
system.cpu.numWorkItemsStarted                      0                       # number of work items this cpu started
system.cpu.op_class_0::No_OpClass                   0      0.00%      0.00% # Class of committed instruction
system.cpu.op_class_0::IntAlu                50006868     50.01%     50.01% # Class of committed instruction
system.cpu.op_class_0::IntMult                     85      0.00%     50.01% # Class of committed instruction
system.cpu.op_class_0::IntDiv                       0      0.00%     50.01% # Class of committed instruction
system.cpu.op_class_0::FloatAdd                     0      0.00%     50.01% # Class of committed instruction
system.cpu.op_class_0::FloatCmp                     0      0.00%     50.01% # Class of committed instruction
system.cpu.op_class_0::FloatCvt                     0      0.00%     50.01% # Class of committed instruction
system.cpu.op_class_0::FloatMult                    0      0.00%     50.01% # Class of committed instruction
system.cpu.op_class_0::FloatMultAcc                 0      0.00%     50.01% # Class of committed instruction
system.cpu.op_class_0::FloatDiv                     0      0.00%     50.01% # Class of committed instruction
system.cpu.op_class_0::FloatMisc                    0      0.00%     50.01% # Class of committed instruction
system.cpu.op_class_0::FloatSqrt                    0      0.00%     50.01% # Class of committed instruction
system.cpu.op_class_0::SimdAdd                      0      0.00%     50.01% # Class of committed instruction
system.cpu.op_class_0::SimdAddAcc                   0      0.00%     50.01% # Class of committed instruction
system.cpu.op_class_0::SimdAlu                      0      0.00%     50.01% # Class of committed instruction
system.cpu.op_class_0::SimdCmp                      0      0.00%     50.01% # Class of committed instruction
system.cpu.op_class_0::SimdCvt                      0      0.00%     50.01% # Class of committed instruction
system.cpu.op_class_0::SimdMisc                     0      0.00%     50.01% # Class of committed instruction
system.cpu.op_class_0::SimdMult                     0      0.00%     50.01% # Class of committed instruction
system.cpu.op_class_0::SimdMultAcc                  0      0.00%     50.01% # Class of committed instruction
system.cpu.op_class_0::SimdShift                    0      0.00%     50.01% # Class of committed instruction
system.cpu.op_class_0::SimdShiftAcc                 0      0.00%     50.01% # Class of committed instruction
system.cpu.op_class_0::SimdDiv                      0      0.00%     50.01% # Class of committed instruction
system.cpu.op_class_0::SimdSqrt                     0      0.00%     50.01% # Class of committed instruction
system.cpu.op_class_0::SimdFloatAdd                 0      0.00%     50.01% # Class of committed instruction
system.cpu.op_class_0::SimdFloatAlu                 0      0.00%     50.01% # Class of committed instruction
system.cpu.op_class_0::SimdFloatCmp                 2      0.00%     50.01% # Class of committed instruction
system.cpu.op_class_0::SimdFloatCvt                 0      0.00%     50.01% # Class of committed instruction
system.cpu.op_class_0::SimdFloatDiv                 0      0.00%     50.01% # Class of committed instruction
system.cpu.op_class_0::SimdFloatMisc                5      0.00%     50.01% # Class of committed instruction
system.cpu.op_class_0::SimdFloatMult                0      0.00%     50.01% # Class of committed instruction
system.cpu.op_class_0::SimdFloatMultAcc             0      0.00%     50.01% # Class of committed instruction
system.cpu.op_class_0::SimdFloatSqrt                0      0.00%     50.01% # Class of committed instruction
system.cpu.op_class_0::SimdReduceAdd                0      0.00%     50.01% # Class of committed instruction
system.cpu.op_class_0::SimdReduceAlu                0      0.00%     50.01% # Class of committed instruction
system.cpu.op_class_0::SimdReduceCmp                0      0.00%     50.01% # Class of committed instruction
system.cpu.op_class_0::SimdFloatReduceAdd            0      0.00%     50.01% # Class of committed instruction
system.cpu.op_class_0::SimdFloatReduceCmp            0      0.00%     50.01% # Class of committed instruction
system.cpu.op_class_0::SimdAes                      0      0.00%     50.01% # Class of committed instruction
system.cpu.op_class_0::SimdAesMix                   0      0.00%     50.01% # Class of committed instruction
system.cpu.op_class_0::SimdSha1Hash                 0      0.00%     50.01% # Class of committed instruction
system.cpu.op_class_0::SimdSha1Hash2                0      0.00%     50.01% # Class of committed instruction
system.cpu.op_class_0::SimdSha256Hash               0      0.00%     50.01% # Class of committed instruction
system.cpu.op_class_0::SimdSha256Hash2              0      0.00%     50.01% # Class of committed instruction
system.cpu.op_class_0::SimdShaSigma2                0      0.00%     50.01% # Class of committed instruction
system.cpu.op_class_0::SimdShaSigma3                0      0.00%     50.01% # Class of committed instruction
system.cpu.op_class_0::SimdPredAlu                  0      0.00%     50.01% # Class of committed instruction
system.cpu.op_class_0::MemRead               36900855     36.90%     86.90% # Class of committed instruction
system.cpu.op_class_0::MemWrite              13095630     13.10%    100.00% # Class of committed instruction
system.cpu.op_class_0::FloatMemRead                 0      0.00%    100.00% # Class of committed instruction
system.cpu.op_class_0::FloatMemWrite                0      0.00%    100.00% # Class of committed instruction
system.cpu.op_class_0::IprAccess                    0      0.00%    100.00% # Class of committed instruction
system.cpu.op_class_0::InstPrefetch                 0      0.00%    100.00% # Class of committed instruction
system.cpu.op_class_0::total                100003445                       # Class of committed instruction
system.cpu.tickCycles                       113215777                       # Number of cycles that the object actually ticked
system.cpu.workload.numSyscalls                    19                       # Number of system calls
system.membus.snoop_filter.hit_multi_requests            0                       # Number of requests hitting in the snoop filter with multiple (>1) holders of the requested data.
system.membus.snoop_filter.hit_multi_snoops            0                       # Number of snoops hitting in the snoop filter with multiple (>1) holders of the requested data.
system.membus.snoop_filter.hit_single_requests       177953                       # Number of requests hitting in the snoop filter with a single holder of the requested data.
system.membus.snoop_filter.hit_single_snoops            0                       # Number of snoops hitting in the snoop filter with a single holder of the requested data.
system.membus.snoop_filter.tot_requests        364131                       # Total number of requests made to the snoop filter.
system.membus.snoop_filter.tot_snoops               0                       # Total number of snoops made to the snoop filter.
system.tol2bus.snoop_filter.hit_multi_requests           44                       # Number of requests hitting in the snoop filter with multiple (>1) holders of the requested data.
system.tol2bus.snoop_filter.hit_multi_snoops            1                       # Number of snoops hitting in the snoop filter with multiple (>1) holders of the requested data.
system.tol2bus.snoop_filter.hit_single_requests       186503                       # Number of requests hitting in the snoop filter with a single holder of the requested data.
system.tol2bus.snoop_filter.hit_single_snoops           32                       # Number of snoops hitting in the snoop filter with a single holder of the requested data.
system.tol2bus.snoop_filter.tot_requests       373068                       # Total number of requests made to the snoop filter.
system.tol2bus.snoop_filter.tot_snoops             33                       # Total number of snoops made to the snoop filter.
system.membus.pwrStateResidencyTicks::UNDEFINED 149165861000                       # Cumulative time (in ticks) in various power states
system.membus.trans_dist::ReadResp                186                       # Transaction distribution
system.membus.trans_dist::WritebackDirty       177806                       # Transaction distribution
system.membus.trans_dist::CleanEvict              147                       # Transaction distribution
system.membus.trans_dist::ReadExReq            185992                       # Transaction distribution
system.membus.trans_dist::ReadExResp           185992                       # Transaction distribution
system.membus.trans_dist::ReadSharedReq           186                       # Transaction distribution
system.membus.pkt_count_system.l2.mem_side::system.mem_ctrls.port       550309                       # Packet count per connected master and slave (bytes)
system.membus.pkt_count::total                 550309                       # Packet count per connected master and slave (bytes)
system.membus.pkt_size_system.l2.mem_side::system.mem_ctrls.port    186359808                       # Cumulative packet size per connected master and slave (bytes)
system.membus.pkt_size::total               186359808                       # Cumulative packet size per connected master and slave (bytes)
system.membus.snoops                                0                       # Total snoops (count)
system.membus.snoopTraffic                          0                       # Total snoop traffic (bytes)
system.membus.snoop_fanout::samples            186178                       # Request fanout histogram
system.membus.snoop_fanout::mean                    0                       # Request fanout histogram
system.membus.snoop_fanout::stdev                   0                       # Request fanout histogram
system.membus.snoop_fanout::underflows              0      0.00%      0.00% # Request fanout histogram
system.membus.snoop_fanout::0                  186178    100.00%    100.00% # Request fanout histogram
system.membus.snoop_fanout::1                       0      0.00%    100.00% # Request fanout histogram
system.membus.snoop_fanout::overflows               0      0.00%    100.00% # Request fanout histogram
system.membus.snoop_fanout::min_value               0                       # Request fanout histogram
system.membus.snoop_fanout::max_value               0                       # Request fanout histogram
system.membus.snoop_fanout::total              186178                       # Request fanout histogram
system.membus.respLayer1.occupancy         6232369750                       # Layer occupancy (ticks)
system.membus.respLayer1.utilization              4.2                       # Layer utilization (%)
system.membus.reqLayer0.occupancy          6053923000                       # Layer occupancy (ticks)
system.membus.reqLayer0.utilization               4.1                       # Layer utilization (%)
system.tol2bus.pwrStateResidencyTicks::UNDEFINED 149165861000                       # Cumulative time (in ticks) in various power states
system.tol2bus.trans_dist::ReadResp               558                       # Transaction distribution
system.tol2bus.trans_dist::WritebackDirty       363820                       # Transaction distribution
system.tol2bus.trans_dist::WritebackClean          427                       # Transaction distribution
system.tol2bus.trans_dist::CleanEvict             241                       # Transaction distribution
system.tol2bus.trans_dist::ReadExReq           186008                       # Transaction distribution
system.tol2bus.trans_dist::ReadExResp          186008                       # Transaction distribution
system.tol2bus.trans_dist::ReadCleanReq           459                       # Transaction distribution
system.tol2bus.trans_dist::ReadSharedReq           99                       # Transaction distribution
system.tol2bus.pkt_count_system.cpu.icache.mem_side::system.l2.cpu_side         1345                       # Packet count per connected master and slave (bytes)
system.tol2bus.pkt_count_system.cpu.dcache.mem_side::system.l2.cpu_side       558289                       # Packet count per connected master and slave (bytes)
system.tol2bus.pkt_count::total                559634                       # Packet count per connected master and slave (bytes)
system.tol2bus.pkt_size_system.cpu.icache.mem_side::system.l2.cpu_side       453632                       # Cumulative packet size per connected master and slave (bytes)
system.tol2bus.pkt_size_system.cpu.dcache.mem_side::system.l2.cpu_side    190525952                       # Cumulative packet size per connected master and slave (bytes)
system.tol2bus.pkt_size::total              190979584                       # Cumulative packet size per connected master and slave (bytes)
system.tol2bus.snoops                          177986                       # Total snoops (count)
system.tol2bus.snoopTraffic                  91036672                       # Total snoop traffic (bytes)
system.tol2bus.snoop_fanout::samples           364552                       # Request fanout histogram
system.tol2bus.snoop_fanout::mean            0.000217                       # Request fanout histogram
system.tol2bus.snoop_fanout::stdev           0.014905                       # Request fanout histogram
system.tol2bus.snoop_fanout::underflows             0      0.00%      0.00% # Request fanout histogram
system.tol2bus.snoop_fanout::0                 364474     99.98%     99.98% # Request fanout histogram
system.tol2bus.snoop_fanout::1                     77      0.02%    100.00% # Request fanout histogram
system.tol2bus.snoop_fanout::2                      1      0.00%    100.00% # Request fanout histogram
system.tol2bus.snoop_fanout::overflows              0      0.00%    100.00% # Request fanout histogram
system.tol2bus.snoop_fanout::min_value              0                       # Request fanout histogram
system.tol2bus.snoop_fanout::max_value              2                       # Request fanout histogram
system.tol2bus.snoop_fanout::total             364552                       # Request fanout histogram
system.tol2bus.reqLayer0.occupancy         3356124000                       # Layer occupancy (ticks)
system.tol2bus.reqLayer0.utilization              2.2                       # Layer utilization (%)
system.tol2bus.respLayer1.occupancy        3163820998                       # Layer occupancy (ticks)
system.tol2bus.respLayer1.utilization             2.1                       # Layer utilization (%)
system.tol2bus.respLayer0.occupancy           7804998                       # Layer occupancy (ticks)
system.tol2bus.respLayer0.utilization             0.0                       # Layer utilization (%)
system.voltage_domain.voltage                       1                       # Voltage in Volts
system.clk_domain.clock                          1000                       # Clock period in ticks
system.l2.pwrStateResidencyTicks::UNDEFINED 149165861000                       # Cumulative time (in ticks) in various power states
system.l2.demand_hits::.cpu.inst                  299                       # number of demand (read+write) hits
system.l2.demand_hits::.cpu.data                   87                       # number of demand (read+write) hits
system.l2.demand_hits::total                      386                       # number of demand (read+write) hits
system.l2.overall_hits::.cpu.inst                 299                       # number of overall hits
system.l2.overall_hits::.cpu.data                  87                       # number of overall hits
system.l2.overall_hits::total                     386                       # number of overall hits
system.l2.demand_misses::.cpu.inst                160                       # number of demand (read+write) misses
system.l2.demand_misses::.cpu.data             186020                       # number of demand (read+write) misses
system.l2.demand_misses::total                 186180                       # number of demand (read+write) misses
system.l2.overall_misses::.cpu.inst               160                       # number of overall misses
system.l2.overall_misses::.cpu.data            186020                       # number of overall misses
system.l2.overall_misses::total                186180                       # number of overall misses
system.l2.demand_miss_latency::.cpu.inst     22202000                       # number of demand (read+write) miss cycles
system.l2.demand_miss_latency::.cpu.data  26847217000                       # number of demand (read+write) miss cycles
system.l2.demand_miss_latency::total      26869419000                       # number of demand (read+write) miss cycles
system.l2.overall_miss_latency::.cpu.inst     22202000                       # number of overall miss cycles
system.l2.overall_miss_latency::.cpu.data  26847217000                       # number of overall miss cycles
system.l2.overall_miss_latency::total     26869419000                       # number of overall miss cycles
system.l2.demand_accesses::.cpu.inst              459                       # number of demand (read+write) accesses
system.l2.demand_accesses::.cpu.data           186107                       # number of demand (read+write) accesses
system.l2.demand_accesses::total               186566                       # number of demand (read+write) accesses
system.l2.overall_accesses::.cpu.inst             459                       # number of overall (read+write) accesses
system.l2.overall_accesses::.cpu.data          186107                       # number of overall (read+write) accesses
system.l2.overall_accesses::total              186566                       # number of overall (read+write) accesses
system.l2.demand_miss_rate::.cpu.inst        0.348584                       # miss rate for demand accesses
system.l2.demand_miss_rate::.cpu.data        0.999533                       # miss rate for demand accesses
system.l2.demand_miss_rate::total            0.997931                       # miss rate for demand accesses
system.l2.overall_miss_rate::.cpu.inst       0.348584                       # miss rate for overall accesses
system.l2.overall_miss_rate::.cpu.data       0.999533                       # miss rate for overall accesses
system.l2.overall_miss_rate::total           0.997931                       # miss rate for overall accesses
system.l2.demand_avg_miss_latency::.cpu.inst 138762.500000                       # average overall miss latency
system.l2.demand_avg_miss_latency::.cpu.data 144324.357596                       # average overall miss latency
system.l2.demand_avg_miss_latency::total 144319.577828                       # average overall miss latency
system.l2.overall_avg_miss_latency::.cpu.inst 138762.500000                       # average overall miss latency
system.l2.overall_avg_miss_latency::.cpu.data 144324.357596                       # average overall miss latency
system.l2.overall_avg_miss_latency::total 144319.577828                       # average overall miss latency
system.l2.blocked_cycles::no_mshrs                  0                       # number of cycles access was blocked
system.l2.blocked_cycles::no_targets                0                       # number of cycles access was blocked
system.l2.blocked::no_mshrs                         0                       # number of cycles access was blocked
system.l2.blocked::no_targets                       0                       # number of cycles access was blocked
system.l2.avg_blocked_cycles::no_mshrs            nan                       # average number of cycles each access was blocked
system.l2.avg_blocked_cycles::no_targets          nan                       # average number of cycles each access was blocked
system.l2.writebacks::.writebacks              177806                       # number of writebacks
system.l2.writebacks::total                    177806                       # number of writebacks
system.l2.demand_mshr_hits::.cpu.data               2                       # number of demand (read+write) MSHR hits
system.l2.demand_mshr_hits::total                   2                       # number of demand (read+write) MSHR hits
system.l2.overall_mshr_hits::.cpu.data              2                       # number of overall MSHR hits
system.l2.overall_mshr_hits::total                  2                       # number of overall MSHR hits
system.l2.demand_mshr_misses::.cpu.inst           160                       # number of demand (read+write) MSHR misses
system.l2.demand_mshr_misses::.cpu.data        186018                       # number of demand (read+write) MSHR misses
system.l2.demand_mshr_misses::total            186178                       # number of demand (read+write) MSHR misses
system.l2.overall_mshr_misses::.cpu.inst          160                       # number of overall MSHR misses
system.l2.overall_mshr_misses::.cpu.data       186018                       # number of overall MSHR misses
system.l2.overall_mshr_misses::total           186178                       # number of overall MSHR misses
system.l2.demand_mshr_miss_latency::.cpu.inst     19002000                       # number of demand (read+write) MSHR miss cycles
system.l2.demand_mshr_miss_latency::.cpu.data  23126609000                       # number of demand (read+write) MSHR miss cycles
system.l2.demand_mshr_miss_latency::total  23145611000                       # number of demand (read+write) MSHR miss cycles
system.l2.overall_mshr_miss_latency::.cpu.inst     19002000                       # number of overall MSHR miss cycles
system.l2.overall_mshr_miss_latency::.cpu.data  23126609000                       # number of overall MSHR miss cycles
system.l2.overall_mshr_miss_latency::total  23145611000                       # number of overall MSHR miss cycles
system.l2.demand_mshr_miss_rate::.cpu.inst     0.348584                       # mshr miss rate for demand accesses
system.l2.demand_mshr_miss_rate::.cpu.data     0.999522                       # mshr miss rate for demand accesses
system.l2.demand_mshr_miss_rate::total       0.997920                       # mshr miss rate for demand accesses
system.l2.overall_mshr_miss_rate::.cpu.inst     0.348584                       # mshr miss rate for overall accesses
system.l2.overall_mshr_miss_rate::.cpu.data     0.999522                       # mshr miss rate for overall accesses
system.l2.overall_mshr_miss_rate::total      0.997920                       # mshr miss rate for overall accesses
system.l2.demand_avg_mshr_miss_latency::.cpu.inst 118762.500000                       # average overall mshr miss latency
system.l2.demand_avg_mshr_miss_latency::.cpu.data 124324.576116                       # average overall mshr miss latency
system.l2.demand_avg_mshr_miss_latency::total 124319.796109                       # average overall mshr miss latency
system.l2.overall_avg_mshr_miss_latency::.cpu.inst 118762.500000                       # average overall mshr miss latency
system.l2.overall_avg_mshr_miss_latency::.cpu.data 124324.576116                       # average overall mshr miss latency
system.l2.overall_avg_mshr_miss_latency::total 124319.796109                       # average overall mshr miss latency
system.l2.replacements                         177986                       # number of replacements
system.l2.WritebackDirty_hits::.writebacks       186014                       # number of WritebackDirty hits
system.l2.WritebackDirty_hits::total           186014                       # number of WritebackDirty hits
system.l2.WritebackDirty_accesses::.writebacks       186014                       # number of WritebackDirty accesses(hits+misses)
system.l2.WritebackDirty_accesses::total       186014                       # number of WritebackDirty accesses(hits+misses)
system.l2.WritebackClean_hits::.writebacks          401                       # number of WritebackClean hits
system.l2.WritebackClean_hits::total              401                       # number of WritebackClean hits
system.l2.WritebackClean_accesses::.writebacks          401                       # number of WritebackClean accesses(hits+misses)
system.l2.WritebackClean_accesses::total          401                       # number of WritebackClean accesses(hits+misses)
system.l2.ReadExReq_hits::.cpu.data                16                       # number of ReadExReq hits
system.l2.ReadExReq_hits::total                    16                       # number of ReadExReq hits
system.l2.ReadExReq_misses::.cpu.data          185992                       # number of ReadExReq misses
system.l2.ReadExReq_misses::total              185992                       # number of ReadExReq misses
system.l2.ReadExReq_miss_latency::.cpu.data  26842911000                       # number of ReadExReq miss cycles
system.l2.ReadExReq_miss_latency::total   26842911000                       # number of ReadExReq miss cycles
system.l2.ReadExReq_accesses::.cpu.data        186008                       # number of ReadExReq accesses(hits+misses)
system.l2.ReadExReq_accesses::total            186008                       # number of ReadExReq accesses(hits+misses)
system.l2.ReadExReq_miss_rate::.cpu.data     0.999914                       # miss rate for ReadExReq accesses
system.l2.ReadExReq_miss_rate::total         0.999914                       # miss rate for ReadExReq accesses
system.l2.ReadExReq_avg_miss_latency::.cpu.data 144322.933244                       # average ReadExReq miss latency
system.l2.ReadExReq_avg_miss_latency::total 144322.933244                       # average ReadExReq miss latency
system.l2.ReadExReq_mshr_misses::.cpu.data       185992                       # number of ReadExReq MSHR misses
system.l2.ReadExReq_mshr_misses::total         185992                       # number of ReadExReq MSHR misses
system.l2.ReadExReq_mshr_miss_latency::.cpu.data  23123071000                       # number of ReadExReq MSHR miss cycles
system.l2.ReadExReq_mshr_miss_latency::total  23123071000                       # number of ReadExReq MSHR miss cycles
system.l2.ReadExReq_mshr_miss_rate::.cpu.data     0.999914                       # mshr miss rate for ReadExReq accesses
system.l2.ReadExReq_mshr_miss_rate::total     0.999914                       # mshr miss rate for ReadExReq accesses
system.l2.ReadExReq_avg_mshr_miss_latency::.cpu.data 124322.933244                       # average ReadExReq mshr miss latency
system.l2.ReadExReq_avg_mshr_miss_latency::total 124322.933244                       # average ReadExReq mshr miss latency
system.l2.ReadCleanReq_hits::.cpu.inst            299                       # number of ReadCleanReq hits
system.l2.ReadCleanReq_hits::total                299                       # number of ReadCleanReq hits
system.l2.ReadCleanReq_misses::.cpu.inst          160                       # number of ReadCleanReq misses
system.l2.ReadCleanReq_misses::total              160                       # number of ReadCleanReq misses
system.l2.ReadCleanReq_miss_latency::.cpu.inst     22202000                       # number of ReadCleanReq miss cycles
system.l2.ReadCleanReq_miss_latency::total     22202000                       # number of ReadCleanReq miss cycles
system.l2.ReadCleanReq_accesses::.cpu.inst          459                       # number of ReadCleanReq accesses(hits+misses)
system.l2.ReadCleanReq_accesses::total            459                       # number of ReadCleanReq accesses(hits+misses)
system.l2.ReadCleanReq_miss_rate::.cpu.inst     0.348584                       # miss rate for ReadCleanReq accesses
system.l2.ReadCleanReq_miss_rate::total      0.348584                       # miss rate for ReadCleanReq accesses
system.l2.ReadCleanReq_avg_miss_latency::.cpu.inst 138762.500000                       # average ReadCleanReq miss latency
system.l2.ReadCleanReq_avg_miss_latency::total 138762.500000                       # average ReadCleanReq miss latency
system.l2.ReadCleanReq_mshr_misses::.cpu.inst          160                       # number of ReadCleanReq MSHR misses
system.l2.ReadCleanReq_mshr_misses::total          160                       # number of ReadCleanReq MSHR misses
system.l2.ReadCleanReq_mshr_miss_latency::.cpu.inst     19002000                       # number of ReadCleanReq MSHR miss cycles
system.l2.ReadCleanReq_mshr_miss_latency::total     19002000                       # number of ReadCleanReq MSHR miss cycles
system.l2.ReadCleanReq_mshr_miss_rate::.cpu.inst     0.348584                       # mshr miss rate for ReadCleanReq accesses
system.l2.ReadCleanReq_mshr_miss_rate::total     0.348584                       # mshr miss rate for ReadCleanReq accesses
system.l2.ReadCleanReq_avg_mshr_miss_latency::.cpu.inst 118762.500000                       # average ReadCleanReq mshr miss latency
system.l2.ReadCleanReq_avg_mshr_miss_latency::total 118762.500000                       # average ReadCleanReq mshr miss latency
system.l2.ReadSharedReq_hits::.cpu.data            71                       # number of ReadSharedReq hits
system.l2.ReadSharedReq_hits::total                71                       # number of ReadSharedReq hits
system.l2.ReadSharedReq_misses::.cpu.data           28                       # number of ReadSharedReq misses
system.l2.ReadSharedReq_misses::total              28                       # number of ReadSharedReq misses
system.l2.ReadSharedReq_miss_latency::.cpu.data      4306000                       # number of ReadSharedReq miss cycles
system.l2.ReadSharedReq_miss_latency::total      4306000                       # number of ReadSharedReq miss cycles
system.l2.ReadSharedReq_accesses::.cpu.data           99                       # number of ReadSharedReq accesses(hits+misses)
system.l2.ReadSharedReq_accesses::total            99                       # number of ReadSharedReq accesses(hits+misses)
system.l2.ReadSharedReq_miss_rate::.cpu.data     0.282828                       # miss rate for ReadSharedReq accesses
system.l2.ReadSharedReq_miss_rate::total     0.282828                       # miss rate for ReadSharedReq accesses
system.l2.ReadSharedReq_avg_miss_latency::.cpu.data 153785.714286                       # average ReadSharedReq miss latency
system.l2.ReadSharedReq_avg_miss_latency::total 153785.714286                       # average ReadSharedReq miss latency
system.l2.ReadSharedReq_mshr_hits::.cpu.data            2                       # number of ReadSharedReq MSHR hits
system.l2.ReadSharedReq_mshr_hits::total            2                       # number of ReadSharedReq MSHR hits
system.l2.ReadSharedReq_mshr_misses::.cpu.data           26                       # number of ReadSharedReq MSHR misses
system.l2.ReadSharedReq_mshr_misses::total           26                       # number of ReadSharedReq MSHR misses
system.l2.ReadSharedReq_mshr_miss_latency::.cpu.data      3538000                       # number of ReadSharedReq MSHR miss cycles
system.l2.ReadSharedReq_mshr_miss_latency::total      3538000                       # number of ReadSharedReq MSHR miss cycles
system.l2.ReadSharedReq_mshr_miss_rate::.cpu.data     0.262626                       # mshr miss rate for ReadSharedReq accesses
system.l2.ReadSharedReq_mshr_miss_rate::total     0.262626                       # mshr miss rate for ReadSharedReq accesses
system.l2.ReadSharedReq_avg_mshr_miss_latency::.cpu.data 136076.923077                       # average ReadSharedReq mshr miss latency
system.l2.ReadSharedReq_avg_mshr_miss_latency::total 136076.923077                       # average ReadSharedReq mshr miss latency
system.l2.tags.pwrStateResidencyTicks::UNDEFINED 149165861000                       # Cumulative time (in ticks) in various power states
system.l2.tags.tagsinuse                  8017.785075                       # Cycle average of tags in use
system.l2.tags.total_refs                      373022                       # Total number of references to valid blocks.
system.l2.tags.sampled_refs                    186178                       # Sample count of references to valid blocks.
system.l2.tags.avg_refs                      2.003577                       # Average number of references to valid blocks.
system.l2.tags.warmup_cycle                    122000                       # Cycle when the warmup percentage was hit.
system.l2.tags.occ_blocks::.cpu.inst         6.324496                       # Average occupied blocks per requestor
system.l2.tags.occ_blocks::.cpu.data      8011.460580                       # Average occupied blocks per requestor
system.l2.tags.occ_percent::.cpu.inst        0.000772                       # Average percentage of cache occupancy
system.l2.tags.occ_percent::.cpu.data        0.977961                       # Average percentage of cache occupancy
system.l2.tags.occ_percent::total            0.978734                       # Average percentage of cache occupancy
system.l2.tags.occ_task_id_blocks::1024          8192                       # Occupied blocks per task id
system.l2.tags.age_task_id_blocks_1024::0           13                       # Occupied blocks per task id
system.l2.tags.age_task_id_blocks_1024::1          113                       # Occupied blocks per task id
system.l2.tags.age_task_id_blocks_1024::2         1122                       # Occupied blocks per task id
system.l2.tags.age_task_id_blocks_1024::3         6944                       # Occupied blocks per task id
system.l2.tags.occ_task_id_percent::1024            1                       # Percentage of cache occupancy per task id
system.l2.tags.tag_accesses                    932226                       # Number of tag accesses
system.l2.tags.data_accesses                   932226                       # Number of data accesses
system.cpu_voltage_domain.voltage                   1                       # Voltage in Volts
system.mem_ctrls.pwrStateResidencyTicks::UNDEFINED 149165861000                       # Cumulative time (in ticks) in various power states
system.mem_ctrls.bytes_read::.cpu.inst          81920                       # Number of bytes read from this memory
system.mem_ctrls.bytes_read::.cpu.data       95241216                       # Number of bytes read from this memory
system.mem_ctrls.bytes_read::total           95323136                       # Number of bytes read from this memory
system.mem_ctrls.bytes_inst_read::.cpu.inst        81920                       # Number of instructions bytes read from this memory
system.mem_ctrls.bytes_inst_read::total         81920                       # Number of instructions bytes read from this memory
system.mem_ctrls.bytes_written::.writebacks     91036672                       # Number of bytes written to this memory
system.mem_ctrls.bytes_written::total        91036672                       # Number of bytes written to this memory
system.mem_ctrls.num_reads::.cpu.inst             160                       # Number of read requests responded to by this memory
system.mem_ctrls.num_reads::.cpu.data          186018                       # Number of read requests responded to by this memory
system.mem_ctrls.num_reads::total              186178                       # Number of read requests responded to by this memory
system.mem_ctrls.num_writes::.writebacks       177806                       # Number of write requests responded to by this memory
system.mem_ctrls.num_writes::total             177806                       # Number of write requests responded to by this memory
system.mem_ctrls.bw_read::.cpu.inst            549187                       # Total read bandwidth from this memory (bytes/s)
system.mem_ctrls.bw_read::.cpu.data         638492047                       # Total read bandwidth from this memory (bytes/s)
system.mem_ctrls.bw_read::total             639041235                       # Total read bandwidth from this memory (bytes/s)
system.mem_ctrls.bw_inst_read::.cpu.inst       549187                       # Instruction read bandwidth from this memory (bytes/s)
system.mem_ctrls.bw_inst_read::total           549187                       # Instruction read bandwidth from this memory (bytes/s)
system.mem_ctrls.bw_write::.writebacks      610305008                       # Write bandwidth from this memory (bytes/s)
system.mem_ctrls.bw_write::total            610305008                       # Write bandwidth from this memory (bytes/s)
system.mem_ctrls.bw_total::.writebacks      610305008                       # Total bandwidth to/from this memory (bytes/s)
system.mem_ctrls.bw_total::.cpu.inst           549187                       # Total bandwidth to/from this memory (bytes/s)
system.mem_ctrls.bw_total::.cpu.data        638492047                       # Total bandwidth to/from this memory (bytes/s)
system.mem_ctrls.bw_total::total           1249346243                       # Total bandwidth to/from this memory (bytes/s)
system.mem_ctrls.avgPriority_.writebacks::samples   1422448.00                       # Average QoS priority value for accepted requests
system.mem_ctrls.avgPriority_.cpu.inst::samples      1280.00                       # Average QoS priority value for accepted requests
system.mem_ctrls.avgPriority_.cpu.data::samples   1488144.00                       # Average QoS priority value for accepted requests
system.mem_ctrls.priorityMinLatency      0.000000018750                       # per QoS priority minimum request to response latency (s)
system.mem_ctrls.priorityMaxLatency      0.004489256750                       # per QoS priority maximum request to response latency (s)
system.mem_ctrls.numReadWriteTurnArounds        59267                       # Number of turnarounds from READ to WRITE
system.mem_ctrls.numWriteReadTurnArounds        59268                       # Number of turnarounds from WRITE to READ
system.mem_ctrls.numStayReadState             1888237                       # Number of times bus staying in READ state
system.mem_ctrls.numStayWriteState            1366359                       # Number of times bus staying in WRITE state
system.mem_ctrls.readReqs                      186178                       # Number of read requests accepted
system.mem_ctrls.writeReqs                     177806                       # Number of write requests accepted
system.mem_ctrls.readBursts                   1489424                       # Number of DRAM read bursts, including those serviced by the write queue
system.mem_ctrls.writeBursts                  1422448                       # Number of DRAM write bursts, including those merged in the write queue
system.mem_ctrls.servicedByWrQ                      0                       # Number of DRAM read bursts serviced by the write queue
system.mem_ctrls.mergedWrBursts                     0                       # Number of DRAM write bursts merged with an existing one
system.mem_ctrls.neitherReadNorWriteReqs            0                       # Number of requests that are neither read nor write
system.mem_ctrls.perBankRdBursts::0             93096                       # Per bank write bursts
system.mem_ctrls.perBankRdBursts::1             93024                       # Per bank write bursts
system.mem_ctrls.perBankRdBursts::2             93216                       # Per bank write bursts
system.mem_ctrls.perBankRdBursts::3             93152                       # Per bank write bursts
system.mem_ctrls.perBankRdBursts::4             93160                       # Per bank write bursts
system.mem_ctrls.perBankRdBursts::5             93088                       # Per bank write bursts
system.mem_ctrls.perBankRdBursts::6             93160                       # Per bank write bursts
system.mem_ctrls.perBankRdBursts::7             93104                       # Per bank write bursts
system.mem_ctrls.perBankRdBursts::8             93184                       # Per bank write bursts
system.mem_ctrls.perBankRdBursts::9             93120                       # Per bank write bursts
system.mem_ctrls.perBankRdBursts::10            93048                       # Per bank write bursts
system.mem_ctrls.perBankRdBursts::11            93032                       # Per bank write bursts
system.mem_ctrls.perBankRdBursts::12            93088                       # Per bank write bursts
system.mem_ctrls.perBankRdBursts::13            92944                       # Per bank write bursts
system.mem_ctrls.perBankRdBursts::14            92960                       # Per bank write bursts
system.mem_ctrls.perBankRdBursts::15            93048                       # Per bank write bursts
system.mem_ctrls.perBankWrBursts::0             88864                       # Per bank write bursts
system.mem_ctrls.perBankWrBursts::1             88872                       # Per bank write bursts
system.mem_ctrls.perBankWrBursts::2             88904                       # Per bank write bursts
system.mem_ctrls.perBankWrBursts::3             88968                       # Per bank write bursts
system.mem_ctrls.perBankWrBursts::4             88960                       # Per bank write bursts
system.mem_ctrls.perBankWrBursts::5             88960                       # Per bank write bursts
system.mem_ctrls.perBankWrBursts::6             88960                       # Per bank write bursts
system.mem_ctrls.perBankWrBursts::7             88960                       # Per bank write bursts
system.mem_ctrls.perBankWrBursts::8             88960                       # Per bank write bursts
system.mem_ctrls.perBankWrBursts::9             88913                       # Per bank write bursts
system.mem_ctrls.perBankWrBursts::10            88832                       # Per bank write bursts
system.mem_ctrls.perBankWrBursts::11            88832                       # Per bank write bursts
system.mem_ctrls.perBankWrBursts::12            88832                       # Per bank write bursts
system.mem_ctrls.perBankWrBursts::13            88832                       # Per bank write bursts
system.mem_ctrls.perBankWrBursts::14            88856                       # Per bank write bursts
system.mem_ctrls.perBankWrBursts::15            88928                       # Per bank write bursts
system.mem_ctrls.avgRdQLen                       8.00                       # Average read queue length when enqueuing
system.mem_ctrls.avgWrQLen                      29.88                       # Average write queue length when enqueuing
system.mem_ctrls.totQLat                  51354096750                       # Total ticks spent queuing
system.mem_ctrls.totBusLat                 7447120000                       # Total ticks spent in databus transfers
system.mem_ctrls.totMemAccLat             79280796750                       # Total ticks spent from burst creation until serviced by the DRAM
system.mem_ctrls.avgQLat                     34479.17                       # Average queueing delay per DRAM burst
system.mem_ctrls.avgBusLat                    5000.00                       # Average bus latency per DRAM burst
system.mem_ctrls.avgMemAccLat                53229.17                       # Average memory access latency per DRAM burst
system.mem_ctrls.numRdRetry                         0                       # Number of times read queue was full causing retry
system.mem_ctrls.numWrRetry                         0                       # Number of times write queue was full causing retry
system.mem_ctrls.readRowHits                  1363724                       # Number of row buffer hits during reads
system.mem_ctrls.writeRowHits                 1302837                       # Number of row buffer hits during writes
system.mem_ctrls.readRowHitRate                 91.56                       # Row buffer hit rate for reads
system.mem_ctrls.writeRowHitRate                91.59                       # Row buffer hit rate for writes
system.mem_ctrls.readPktSize::0                     0                       # Read request sizes (log2)
system.mem_ctrls.readPktSize::1                     0                       # Read request sizes (log2)
system.mem_ctrls.readPktSize::2                     0                       # Read request sizes (log2)
system.mem_ctrls.readPktSize::3                     0                       # Read request sizes (log2)
system.mem_ctrls.readPktSize::4                     0                       # Read request sizes (log2)
system.mem_ctrls.readPktSize::5                     0                       # Read request sizes (log2)
system.mem_ctrls.readPktSize::6               1489424                       # Read request sizes (log2)
system.mem_ctrls.writePktSize::0                    0                       # Write request sizes (log2)
system.mem_ctrls.writePktSize::1                    0                       # Write request sizes (log2)
system.mem_ctrls.writePktSize::2                    0                       # Write request sizes (log2)
system.mem_ctrls.writePktSize::3                    0                       # Write request sizes (log2)
system.mem_ctrls.writePktSize::4                    0                       # Write request sizes (log2)
system.mem_ctrls.writePktSize::5                    0                       # Write request sizes (log2)
system.mem_ctrls.writePktSize::6              1422448                       # Write request sizes (log2)
system.mem_ctrls.rdQLenPdf::0                  186158                       # What read queue length does an incoming req see
system.mem_ctrls.rdQLenPdf::1                  186159                       # What read queue length does an incoming req see
system.mem_ctrls.rdQLenPdf::2                  186160                       # What read queue length does an incoming req see
system.mem_ctrls.rdQLenPdf::3                  186161                       # What read queue length does an incoming req see
system.mem_ctrls.rdQLenPdf::4                  186161                       # What read queue length does an incoming req see
system.mem_ctrls.rdQLenPdf::5                  186161                       # What read queue length does an incoming req see
system.mem_ctrls.rdQLenPdf::6                  186164                       # What read queue length does an incoming req see
system.mem_ctrls.rdQLenPdf::7                  186165                       # What read queue length does an incoming req see
system.mem_ctrls.rdQLenPdf::8                      18                       # What read queue length does an incoming req see
system.mem_ctrls.rdQLenPdf::9                      17                       # What read queue length does an incoming req see
system.mem_ctrls.rdQLenPdf::10                     16                       # What read queue length does an incoming req see
system.mem_ctrls.rdQLenPdf::11                     15                       # What read queue length does an incoming req see
system.mem_ctrls.rdQLenPdf::12                     16                       # What read queue length does an incoming req see
system.mem_ctrls.rdQLenPdf::13                     16                       # What read queue length does an incoming req see
system.mem_ctrls.rdQLenPdf::14                     13                       # What read queue length does an incoming req see
system.mem_ctrls.rdQLenPdf::15                     12                       # What read queue length does an incoming req see
system.mem_ctrls.rdQLenPdf::16                      2                       # What read queue length does an incoming req see
system.mem_ctrls.rdQLenPdf::17                      2                       # What read queue length does an incoming req see
system.mem_ctrls.rdQLenPdf::18                      2                       # What read queue length does an incoming req see
system.mem_ctrls.rdQLenPdf::19                      2                       # What read queue length does an incoming req see
system.mem_ctrls.rdQLenPdf::20                      1                       # What read queue length does an incoming req see
system.mem_ctrls.rdQLenPdf::21                      1                       # What read queue length does an incoming req see
system.mem_ctrls.rdQLenPdf::22                      1                       # What read queue length does an incoming req see
system.mem_ctrls.rdQLenPdf::23                      1                       # What read queue length does an incoming req see
system.mem_ctrls.rdQLenPdf::24                      0                       # What read queue length does an incoming req see
system.mem_ctrls.rdQLenPdf::25                      0                       # What read queue length does an incoming req see
system.mem_ctrls.rdQLenPdf::26                      0                       # What read queue length does an incoming req see
system.mem_ctrls.rdQLenPdf::27                      0                       # What read queue length does an incoming req see
system.mem_ctrls.rdQLenPdf::28                      0                       # What read queue length does an incoming req see
system.mem_ctrls.rdQLenPdf::29                      0                       # What read queue length does an incoming req see
system.mem_ctrls.rdQLenPdf::30                      0                       # What read queue length does an incoming req see
system.mem_ctrls.rdQLenPdf::31                      0                       # What read queue length does an incoming req see
system.mem_ctrls.wrQLenPdf::0                       1                       # What write queue length does an incoming req see
system.mem_ctrls.wrQLenPdf::1                       1                       # What write queue length does an incoming req see
system.mem_ctrls.wrQLenPdf::2                       1                       # What write queue length does an incoming req see
system.mem_ctrls.wrQLenPdf::3                       1                       # What write queue length does an incoming req see
system.mem_ctrls.wrQLenPdf::4                       1                       # What write queue length does an incoming req see
system.mem_ctrls.wrQLenPdf::5                       1                       # What write queue length does an incoming req see
system.mem_ctrls.wrQLenPdf::6                       1                       # What write queue length does an incoming req see
system.mem_ctrls.wrQLenPdf::7                       1                       # What write queue length does an incoming req see
system.mem_ctrls.wrQLenPdf::8                       1                       # What write queue length does an incoming req see
system.mem_ctrls.wrQLenPdf::9                       1                       # What write queue length does an incoming req see
system.mem_ctrls.wrQLenPdf::10                      1                       # What write queue length does an incoming req see
system.mem_ctrls.wrQLenPdf::11                      1                       # What write queue length does an incoming req see
system.mem_ctrls.wrQLenPdf::12                      1                       # What write queue length does an incoming req see
system.mem_ctrls.wrQLenPdf::13                      1                       # What write queue length does an incoming req see
system.mem_ctrls.wrQLenPdf::14                      1                       # What write queue length does an incoming req see
system.mem_ctrls.wrQLenPdf::15                  59268                       # What write queue length does an incoming req see
system.mem_ctrls.wrQLenPdf::16                  59268                       # What write queue length does an incoming req see
system.mem_ctrls.wrQLenPdf::17                  59268                       # What write queue length does an incoming req see
system.mem_ctrls.wrQLenPdf::18                  59268                       # What write queue length does an incoming req see
system.mem_ctrls.wrQLenPdf::19                  59268                       # What write queue length does an incoming req see
system.mem_ctrls.wrQLenPdf::20                  59268                       # What write queue length does an incoming req see
system.mem_ctrls.wrQLenPdf::21                  59268                       # What write queue length does an incoming req see
system.mem_ctrls.wrQLenPdf::22                  59268                       # What write queue length does an incoming req see
system.mem_ctrls.wrQLenPdf::23                  59268                       # What write queue length does an incoming req see
system.mem_ctrls.wrQLenPdf::24                  59268                       # What write queue length does an incoming req see
system.mem_ctrls.wrQLenPdf::25                  59268                       # What write queue length does an incoming req see
system.mem_ctrls.wrQLenPdf::26                  59268                       # What write queue length does an incoming req see
system.mem_ctrls.wrQLenPdf::27                  59268                       # What write queue length does an incoming req see
system.mem_ctrls.wrQLenPdf::28                  59268                       # What write queue length does an incoming req see
system.mem_ctrls.wrQLenPdf::29                  59268                       # What write queue length does an incoming req see
system.mem_ctrls.wrQLenPdf::30                  59268                       # What write queue length does an incoming req see
system.mem_ctrls.wrQLenPdf::31                  59268                       # What write queue length does an incoming req see
system.mem_ctrls.wrQLenPdf::32                  59268                       # What write queue length does an incoming req see
system.mem_ctrls.wrQLenPdf::33                  59268                       # What write queue length does an incoming req see
system.mem_ctrls.wrQLenPdf::34                  59268                       # What write queue length does an incoming req see
system.mem_ctrls.wrQLenPdf::35                  59268                       # What write queue length does an incoming req see
system.mem_ctrls.wrQLenPdf::36                  59268                       # What write queue length does an incoming req see
system.mem_ctrls.wrQLenPdf::37                  59268                       # What write queue length does an incoming req see
system.mem_ctrls.wrQLenPdf::38                  59268                       # What write queue length does an incoming req see
system.mem_ctrls.wrQLenPdf::39                      1                       # What write queue length does an incoming req see
system.mem_ctrls.wrQLenPdf::40                      0                       # What write queue length does an incoming req see
system.mem_ctrls.wrQLenPdf::41                      0                       # What write queue length does an incoming req see
system.mem_ctrls.wrQLenPdf::42                      0                       # What write queue length does an incoming req see
system.mem_ctrls.wrQLenPdf::43                      0                       # What write queue length does an incoming req see
system.mem_ctrls.wrQLenPdf::44                      0                       # What write queue length does an incoming req see
system.mem_ctrls.wrQLenPdf::45                      0                       # What write queue length does an incoming req see
system.mem_ctrls.wrQLenPdf::46                      0                       # What write queue length does an incoming req see
system.mem_ctrls.wrQLenPdf::47                      0                       # What write queue length does an incoming req see
system.mem_ctrls.wrQLenPdf::48                      0                       # What write queue length does an incoming req see
system.mem_ctrls.wrQLenPdf::49                      0                       # What write queue length does an incoming req see
system.mem_ctrls.wrQLenPdf::50                      0                       # What write queue length does an incoming req see
system.mem_ctrls.wrQLenPdf::51                      0                       # What write queue length does an incoming req see
system.mem_ctrls.wrQLenPdf::52                      0                       # What write queue length does an incoming req see
system.mem_ctrls.wrQLenPdf::53                      0                       # What write queue length does an incoming req see
system.mem_ctrls.wrQLenPdf::54                      0                       # What write queue length does an incoming req see
system.mem_ctrls.wrQLenPdf::55                      0                       # What write queue length does an incoming req see
system.mem_ctrls.wrQLenPdf::56                      0                       # What write queue length does an incoming req see
system.mem_ctrls.wrQLenPdf::57                      0                       # What write queue length does an incoming req see
system.mem_ctrls.wrQLenPdf::58                      0                       # What write queue length does an incoming req see
system.mem_ctrls.wrQLenPdf::59                      0                       # What write queue length does an incoming req see
system.mem_ctrls.wrQLenPdf::60                      0                       # What write queue length does an incoming req see
system.mem_ctrls.wrQLenPdf::61                      0                       # What write queue length does an incoming req see
system.mem_ctrls.wrQLenPdf::62                      0                       # What write queue length does an incoming req see
system.mem_ctrls.wrQLenPdf::63                      0                       # What write queue length does an incoming req see
system.mem_ctrls.bytesPerActivate::samples       245295                       # Bytes accessed per row activation
system.mem_ctrls.bytesPerActivate::mean    759.731491                       # Bytes accessed per row activation
system.mem_ctrls.bytesPerActivate::gmean   692.762131                       # Bytes accessed per row activation
system.mem_ctrls.bytesPerActivate::stdev   274.538754                       # Bytes accessed per row activation
system.mem_ctrls.bytesPerActivate::0-127         4889      1.99%      1.99% # Bytes accessed per row activation
system.mem_ctrls.bytesPerActivate::128-255          412      0.17%      2.16% # Bytes accessed per row activation
system.mem_ctrls.bytesPerActivate::256-383         2362      0.96%      3.12% # Bytes accessed per row activation
system.mem_ctrls.bytesPerActivate::384-511         5752      2.34%      5.47% # Bytes accessed per row activation
system.mem_ctrls.bytesPerActivate::512-639       105889     43.17%     48.64% # Bytes accessed per row activation
system.mem_ctrls.bytesPerActivate::640-767          906      0.37%     49.01% # Bytes accessed per row activation
system.mem_ctrls.bytesPerActivate::768-895          495      0.20%     49.21% # Bytes accessed per row activation
system.mem_ctrls.bytesPerActivate::896-1023         6733      2.74%     51.95% # Bytes accessed per row activation
system.mem_ctrls.bytesPerActivate::1024-1151       117857     48.05%    100.00% # Bytes accessed per row activation
system.mem_ctrls.bytesPerActivate::total       245295                       # Bytes accessed per row activation
system.mem_ctrls.rdPerTurnAround::samples        59268                       # Reads before turning the bus around for writes
system.mem_ctrls.rdPerTurnAround::mean      25.130323                       # Reads before turning the bus around for writes
system.mem_ctrls.rdPerTurnAround::gmean     24.007300                       # Reads before turning the bus around for writes
system.mem_ctrls.rdPerTurnAround::stdev    265.805685                       # Reads before turning the bus around for writes
system.mem_ctrls.rdPerTurnAround::0-2047        59267    100.00%    100.00% # Reads before turning the bus around for writes
system.mem_ctrls.rdPerTurnAround::63488-65535            1      0.00%    100.00% # Reads before turning the bus around for writes
system.mem_ctrls.rdPerTurnAround::total         59268                       # Reads before turning the bus around for writes
system.mem_ctrls.wrPerTurnAround::samples        59267                       # Writes before turning the bus around for reads
system.mem_ctrls.wrPerTurnAround::mean      24.000017                       # Writes before turning the bus around for reads
system.mem_ctrls.wrPerTurnAround::gmean     24.000017                       # Writes before turning the bus around for reads
system.mem_ctrls.wrPerTurnAround::stdev      0.004108                       # Writes before turning the bus around for reads
system.mem_ctrls.wrPerTurnAround::24            59266    100.00%    100.00% # Writes before turning the bus around for reads
system.mem_ctrls.wrPerTurnAround::25                1      0.00%    100.00% # Writes before turning the bus around for reads
system.mem_ctrls.wrPerTurnAround::total         59267                       # Writes before turning the bus around for reads
system.mem_ctrls.bytesReadDRAM               95323136                       # Total number of bytes read from DRAM
system.mem_ctrls.bytesReadWrQ                       0                       # Total number of bytes read from write queue
[...]
system.cpu.icache.ReadReq_miss_rate::total     0.000192                       # miss rate for ReadReq accesses
system.cpu.icache.ReadReq_avg_miss_latency::.cpu.inst 73074.074074                       # average ReadReq miss latency
system.cpu.icache.ReadReq_avg_miss_latency::total 73074.074074                       # average ReadReq miss latency
system.cpu.icache.ReadReq_mshr_misses::.cpu.inst          459                       # number of ReadReq MSHR misses
system.cpu.icache.ReadReq_mshr_misses::total          459                       # number of ReadReq MSHR misses
system.cpu.icache.ReadReq_mshr_miss_latency::.cpu.inst     32623000                       # number of ReadReq MSHR miss cycles
system.cpu.icache.ReadReq_mshr_miss_latency::total     32623000                       # number of ReadReq MSHR miss cycles
system.cpu.icache.ReadReq_mshr_miss_rate::.cpu.inst     0.000192                       # mshr miss rate for ReadReq accesses
system.cpu.icache.ReadReq_mshr_miss_rate::total     0.000192                       # mshr miss rate for ReadReq accesses
system.cpu.icache.ReadReq_avg_mshr_miss_latency::.cpu.inst 71074.074074                       # average ReadReq mshr miss latency
system.cpu.icache.ReadReq_avg_mshr_miss_latency::total 71074.074074                       # average ReadReq mshr miss latency
system.cpu.icache.tags.pwrStateResidencyTicks::UNDEFINED 149165861000                       # Cumulative time (in ticks) in various power states
system.cpu.icache.tags.tagsinuse            31.999115                       # Cycle average of tags in use
system.cpu.icache.tags.total_refs             2387409                       # Total number of references to valid blocks.
system.cpu.icache.tags.sampled_refs               459                       # Sample count of references to valid blocks.
system.cpu.icache.tags.avg_refs           5201.326797                       # Average number of references to valid blocks.
system.cpu.icache.tags.warmup_cycle            143000                       # Cycle when the warmup percentage was hit.
system.cpu.icache.tags.occ_blocks::.cpu.inst    31.999115                       # Average occupied blocks per requestor
system.cpu.icache.tags.occ_percent::.cpu.inst     0.999972                       # Average percentage of cache occupancy
system.cpu.icache.tags.occ_percent::total     0.999972                       # Average percentage of cache occupancy
system.cpu.icache.tags.occ_task_id_blocks::1024           32                       # Occupied blocks per task id
system.cpu.icache.tags.age_task_id_blocks_1024::4           32                       # Occupied blocks per task id
system.cpu.icache.tags.occ_task_id_percent::1024            1                       # Percentage of cache occupancy per task id
system.cpu.icache.tags.tag_accesses           4775277                       # Number of tag accesses
system.cpu.icache.tags.data_accesses          4775277                       # Number of data accesses
system.cpu.dtb.walker.pwrStateResidencyTicks::UNDEFINED 149165861000                       # Cumulative time (in ticks) in various power states
system.cpu.dtb.stage2_mmu.stage2_tlb.walker.pwrStateResidencyTicks::UNDEFINED 149165861000                       # Cumulative time (in ticks) in various power states
system.cpu.dcache.pwrStateResidencyTicks::UNDEFINED 149165861000                       # Cumulative time (in ticks) in various power states
system.cpu.dcache.demand_hits::.cpu.data     48434320                       # number of demand (read+write) hits
system.cpu.dcache.demand_hits::total         48434320                       # number of demand (read+write) hits
system.cpu.dcache.overall_hits::.cpu.data     48434356                       # number of overall hits
system.cpu.dcache.overall_hits::total        48434356                       # number of overall hits
system.cpu.dcache.demand_misses::.cpu.data       372104                       # number of demand (read+write) misses
system.cpu.dcache.demand_misses::total         372104                       # number of demand (read+write) misses
system.cpu.dcache.overall_misses::.cpu.data       372120                       # number of overall misses
system.cpu.dcache.overall_misses::total        372120                       # number of overall misses
system.cpu.dcache.demand_miss_latency::.cpu.data  56184897000                       # number of demand (read+write) miss cycles
system.cpu.dcache.demand_miss_latency::total  56184897000                       # number of demand (read+write) miss cycles
system.cpu.dcache.overall_miss_latency::.cpu.data  56184897000                       # number of overall miss cycles
system.cpu.dcache.overall_miss_latency::total  56184897000                       # number of overall miss cycles
system.cpu.dcache.demand_accesses::.cpu.data     48806424                       # number of demand (read+write) accesses
system.cpu.dcache.demand_accesses::total     48806424                       # number of demand (read+write) accesses
system.cpu.dcache.overall_accesses::.cpu.data     48806476                       # number of overall (read+write) accesses
system.cpu.dcache.overall_accesses::total     48806476                       # number of overall (read+write) accesses
system.cpu.dcache.demand_miss_rate::.cpu.data     0.007624                       # miss rate for demand accesses
system.cpu.dcache.demand_miss_rate::total     0.007624                       # miss rate for demand accesses
system.cpu.dcache.overall_miss_rate::.cpu.data     0.007624                       # miss rate for overall accesses
system.cpu.dcache.overall_miss_rate::total     0.007624                       # miss rate for overall accesses
system.cpu.dcache.demand_avg_miss_latency::.cpu.data 150992.456410                       # average overall miss latency
system.cpu.dcache.demand_avg_miss_latency::total 150992.456410                       # average overall miss latency
system.cpu.dcache.overall_avg_miss_latency::.cpu.data 150985.964205                       # average overall miss latency
system.cpu.dcache.overall_avg_miss_latency::total 150985.964205                       # average overall miss latency
system.cpu.dcache.blocked_cycles::no_mshrs            0                       # number of cycles access was blocked
system.cpu.dcache.blocked_cycles::no_targets            0                       # number of cycles access was blocked
system.cpu.dcache.blocked::no_mshrs                 0                       # number of cycles access was blocked
system.cpu.dcache.blocked::no_targets               0                       # number of cycles access was blocked
system.cpu.dcache.avg_blocked_cycles::no_mshrs          nan                       # average number of cycles each access was blocked
system.cpu.dcache.avg_blocked_cycles::no_targets          nan                       # average number of cycles each access was blocked
system.cpu.dcache.writebacks::.writebacks       186014                       # number of writebacks
system.cpu.dcache.writebacks::total            186014                       # number of writebacks
system.cpu.dcache.demand_mshr_hits::.cpu.data       186004                       # number of demand (read+write) MSHR hits
system.cpu.dcache.demand_mshr_hits::total       186004                       # number of demand (read+write) MSHR hits
system.cpu.dcache.overall_mshr_hits::.cpu.data       186004                       # number of overall MSHR hits
system.cpu.dcache.overall_mshr_hits::total       186004                       # number of overall MSHR hits
system.cpu.dcache.demand_mshr_misses::.cpu.data       186100                       # number of demand (read+write) MSHR misses
system.cpu.dcache.demand_mshr_misses::total       186100                       # number of demand (read+write) MSHR misses
system.cpu.dcache.overall_mshr_misses::.cpu.data       186107                       # number of overall MSHR misses
system.cpu.dcache.overall_mshr_misses::total       186107                       # number of overall MSHR misses
system.cpu.dcache.demand_mshr_miss_latency::.cpu.data  27407042000                       # number of demand (read+write) MSHR miss cycles
system.cpu.dcache.demand_mshr_miss_latency::total  27407042000                       # number of demand (read+write) MSHR miss cycles
system.cpu.dcache.overall_mshr_miss_latency::.cpu.data  27407962000                       # number of overall MSHR miss cycles
system.cpu.dcache.overall_mshr_miss_latency::total  27407962000                       # number of overall MSHR miss cycles
system.cpu.dcache.demand_mshr_miss_rate::.cpu.data     0.003813                       # mshr miss rate for demand accesses
system.cpu.dcache.demand_mshr_miss_rate::total     0.003813                       # mshr miss rate for demand accesses
system.cpu.dcache.overall_mshr_miss_rate::.cpu.data     0.003813                       # mshr miss rate for overall accesses
system.cpu.dcache.overall_mshr_miss_rate::total     0.003813                       # mshr miss rate for overall accesses
system.cpu.dcache.demand_avg_mshr_miss_latency::.cpu.data 147270.510478                       # average overall mshr miss latency
system.cpu.dcache.demand_avg_mshr_miss_latency::total 147270.510478                       # average overall mshr miss latency
system.cpu.dcache.overall_avg_mshr_miss_latency::.cpu.data 147269.914619                       # average overall mshr miss latency
system.cpu.dcache.overall_avg_mshr_miss_latency::total 147269.914619                       # average overall mshr miss latency
system.cpu.dcache.replacements                 186075                       # number of replacements
system.cpu.dcache.ReadReq_hits::.cpu.data     35710808                       # number of ReadReq hits
system.cpu.dcache.ReadReq_hits::total        35710808                       # number of ReadReq hits
system.cpu.dcache.ReadReq_misses::.cpu.data          101                       # number of ReadReq misses
system.cpu.dcache.ReadReq_misses::total           101                       # number of ReadReq misses
system.cpu.dcache.ReadReq_miss_latency::.cpu.data      6796000                       # number of ReadReq miss cycles
system.cpu.dcache.ReadReq_miss_latency::total      6796000                       # number of ReadReq miss cycles
system.cpu.dcache.ReadReq_accesses::.cpu.data     35710909                       # number of ReadReq accesses(hits+misses)
system.cpu.dcache.ReadReq_accesses::total     35710909                       # number of ReadReq accesses(hits+misses)
system.cpu.dcache.ReadReq_miss_rate::.cpu.data     0.000003                       # miss rate for ReadReq accesses
system.cpu.dcache.ReadReq_miss_rate::total     0.000003                       # miss rate for ReadReq accesses
system.cpu.dcache.ReadReq_avg_miss_latency::.cpu.data 67287.128713                       # average ReadReq miss latency
system.cpu.dcache.ReadReq_avg_miss_latency::total 67287.128713                       # average ReadReq miss latency
system.cpu.dcache.ReadReq_mshr_hits::.cpu.data            9                       # number of ReadReq MSHR hits
system.cpu.dcache.ReadReq_mshr_hits::total            9                       # number of ReadReq MSHR hits
system.cpu.dcache.ReadReq_mshr_misses::.cpu.data           92                       # number of ReadReq MSHR misses
system.cpu.dcache.ReadReq_mshr_misses::total           92                       # number of ReadReq MSHR misses
system.cpu.dcache.ReadReq_mshr_miss_latency::.cpu.data      5519000                       # number of ReadReq MSHR miss cycles
system.cpu.dcache.ReadReq_mshr_miss_latency::total      5519000                       # number of ReadReq MSHR miss cycles
system.cpu.dcache.ReadReq_mshr_miss_rate::.cpu.data     0.000003                       # mshr miss rate for ReadReq accesses
system.cpu.dcache.ReadReq_mshr_miss_rate::total     0.000003                       # mshr miss rate for ReadReq accesses
system.cpu.dcache.ReadReq_avg_mshr_miss_latency::.cpu.data 59989.130435                       # average ReadReq mshr miss latency
system.cpu.dcache.ReadReq_avg_mshr_miss_latency::total 59989.130435                       # average ReadReq mshr miss latency
system.cpu.dcache.WriteReq_hits::.cpu.data     12723512                       # number of WriteReq hits
system.cpu.dcache.WriteReq_hits::total       12723512                       # number of WriteReq hits
system.cpu.dcache.WriteReq_misses::.cpu.data       372003                       # number of WriteReq misses
system.cpu.dcache.WriteReq_misses::total       372003                       # number of WriteReq misses
system.cpu.dcache.WriteReq_miss_latency::.cpu.data  56178101000                       # number of WriteReq miss cycles
system.cpu.dcache.WriteReq_miss_latency::total  56178101000                       # number of WriteReq miss cycles
system.cpu.dcache.WriteReq_accesses::.cpu.data     13095515                       # number of WriteReq accesses(hits+misses)
system.cpu.dcache.WriteReq_accesses::total     13095515                       # number of WriteReq accesses(hits+misses)
system.cpu.dcache.WriteReq_miss_rate::.cpu.data     0.028407                       # miss rate for WriteReq accesses
system.cpu.dcache.WriteReq_miss_rate::total     0.028407                       # miss rate for WriteReq accesses
system.cpu.dcache.WriteReq_avg_miss_latency::.cpu.data 151015.182673                       # average WriteReq miss latency
system.cpu.dcache.WriteReq_avg_miss_latency::total 151015.182673                       # average WriteReq miss latency
system.cpu.dcache.WriteReq_mshr_hits::.cpu.data       185995                       # number of WriteReq MSHR hits
system.cpu.dcache.WriteReq_mshr_hits::total       185995                       # number of WriteReq MSHR hits
system.cpu.dcache.WriteReq_mshr_misses::.cpu.data       186008                       # number of WriteReq MSHR misses
system.cpu.dcache.WriteReq_mshr_misses::total       186008                       # number of WriteReq MSHR misses
system.cpu.dcache.WriteReq_mshr_miss_latency::.cpu.data  27401523000                       # number of WriteReq MSHR miss cycles
system.cpu.dcache.WriteReq_mshr_miss_latency::total  27401523000                       # number of WriteReq MSHR miss cycles
system.cpu.dcache.WriteReq_mshr_miss_rate::.cpu.data     0.014204                       # mshr miss rate for WriteReq accesses
system.cpu.dcache.WriteReq_mshr_miss_rate::total     0.014204                       # mshr miss rate for WriteReq accesses
system.cpu.dcache.WriteReq_avg_mshr_miss_latency::.cpu.data 147313.680057                       # average WriteReq mshr miss latency
system.cpu.dcache.WriteReq_avg_mshr_miss_latency::total 147313.680057                       # average WriteReq mshr miss latency
system.cpu.dcache.SoftPFReq_hits::.cpu.data           36                       # number of SoftPFReq hits
system.cpu.dcache.SoftPFReq_hits::total            36                       # number of SoftPFReq hits
system.cpu.dcache.SoftPFReq_misses::.cpu.data           16                       # number of SoftPFReq misses
system.cpu.dcache.SoftPFReq_misses::total           16                       # number of SoftPFReq misses
system.cpu.dcache.SoftPFReq_accesses::.cpu.data           52                       # number of SoftPFReq accesses(hits+misses)
system.cpu.dcache.SoftPFReq_accesses::total           52                       # number of SoftPFReq accesses(hits+misses)
system.cpu.dcache.SoftPFReq_miss_rate::.cpu.data     0.307692                       # miss rate for SoftPFReq accesses
system.cpu.dcache.SoftPFReq_miss_rate::total     0.307692                       # miss rate for SoftPFReq accesses
system.cpu.dcache.SoftPFReq_mshr_misses::.cpu.data            7                       # number of SoftPFReq MSHR misses
system.cpu.dcache.SoftPFReq_mshr_misses::total            7                       # number of SoftPFReq MSHR misses
system.cpu.dcache.SoftPFReq_mshr_miss_latency::.cpu.data       920000                       # number of SoftPFReq MSHR miss cycles
system.cpu.dcache.SoftPFReq_mshr_miss_latency::total       920000                       # number of SoftPFReq MSHR miss cycles
system.cpu.dcache.SoftPFReq_mshr_miss_rate::.cpu.data     0.134615                       # mshr miss rate for SoftPFReq accesses
system.cpu.dcache.SoftPFReq_mshr_miss_rate::total     0.134615                       # mshr miss rate for SoftPFReq accesses
system.cpu.dcache.SoftPFReq_avg_mshr_miss_latency::.cpu.data 131428.571429                       # average SoftPFReq mshr miss latency
system.cpu.dcache.SoftPFReq_avg_mshr_miss_latency::total 131428.571429                       # average SoftPFReq mshr miss latency
system.cpu.dcache.LoadLockedReq_hits::.cpu.data           14                       # number of LoadLockedReq hits
system.cpu.dcache.LoadLockedReq_hits::total           14                       # number of LoadLockedReq hits
system.cpu.dcache.LoadLockedReq_accesses::.cpu.data           14                       # number of LoadLockedReq accesses(hits+misses)
system.cpu.dcache.LoadLockedReq_accesses::total           14                       # number of LoadLockedReq accesses(hits+misses)
system.cpu.dcache.StoreCondReq_hits::.cpu.data           14                       # number of StoreCondReq hits
system.cpu.dcache.StoreCondReq_hits::total           14                       # number of StoreCondReq hits
system.cpu.dcache.StoreCondReq_accesses::.cpu.data           14                       # number of StoreCondReq accesses(hits+misses)
system.cpu.dcache.StoreCondReq_accesses::total           14                       # number of StoreCondReq accesses(hits+misses)
system.cpu.dcache.tags.pwrStateResidencyTicks::UNDEFINED 149165861000                       # Cumulative time (in ticks) in various power states
system.cpu.dcache.tags.tagsinuse            31.996843                       # Cycle average of tags in use
system.cpu.dcache.tags.total_refs            48620491                       # Total number of references to valid blocks.
system.cpu.dcache.tags.sampled_refs            186107                       # Sample count of references to valid blocks.
system.cpu.dcache.tags.avg_refs            261.250200                       # Average number of references to valid blocks.
system.cpu.dcache.tags.warmup_cycle            345000                       # Cycle when the warmup percentage was hit.
system.cpu.dcache.tags.occ_blocks::.cpu.data    31.996843                       # Average occupied blocks per requestor
system.cpu.dcache.tags.occ_percent::.cpu.data     0.999901                       # Average percentage of cache occupancy
system.cpu.dcache.tags.occ_percent::total     0.999901                       # Average percentage of cache occupancy
system.cpu.dcache.tags.occ_task_id_blocks::1024           32                       # Occupied blocks per task id
system.cpu.dcache.tags.age_task_id_blocks_1024::0           13                       # Occupied blocks per task id
system.cpu.dcache.tags.age_task_id_blocks_1024::1           17                       # Occupied blocks per task id
system.cpu.dcache.tags.age_task_id_blocks_1024::4            2                       # Occupied blocks per task id
system.cpu.dcache.tags.occ_task_id_percent::1024            1                       # Percentage of cache occupancy per task id
system.cpu.dcache.tags.tag_accesses          97799115                       # Number of tag accesses
system.cpu.dcache.tags.data_accesses         97799115                       # Number of data accesses
system.cpu.itb.walker.pwrStateResidencyTicks::UNDEFINED 149165861000                       # Cumulative time (in ticks) in various power states
system.cpu.itb.stage2_mmu.stage2_tlb.walker.pwrStateResidencyTicks::UNDEFINED 149165861000                       # Cumulative time (in ticks) in various power states

---------- End Simulation Statistics   ----------
