
---------- Begin Simulation Statistics ----------
final_tick                               106652122000                       # Number of ticks from beginning of simulation (restored from checkpoints and never reset)
host_inst_rate                                 189393                       # Simulator instruction rate (inst/s)
host_mem_usage                                 713360                       # Number of bytes of host memory used
host_op_rate                                   206702                       # Simulator op (including micro ops) rate (op/s)
host_seconds                                   528.00                       # Real time elapsed on the host
host_tick_rate                              201991293                       # Simulator tick rate (ticks/s)
sim_freq                                 1000000000000                       # Frequency of simulated ticks
sim_insts                                   100000000                       # Number of instructions simulated
sim_ops                                     109139424                       # Number of ops (including micro ops) simulated
sim_seconds                                  0.106652                       # Number of seconds simulated
sim_ticks                                106652122000                       # Number of ticks simulated
system.cpu.branchPred.BTBCorrect                    0                       # Number of correct BTB predictions (this stat may not work properly.
system.cpu.branchPred.BTBHitPct             92.528265                       # BTB Hit Percentage
system.cpu.branchPred.BTBHits                 8062938                       # Number of BTB hits
system.cpu.branchPred.BTBLookups              8714027                       # Number of BTB lookups
system.cpu.branchPred.RASInCorrect                482                       # Number of incorrect RAS predictions.
system.cpu.branchPred.condIncorrect             89009                       # Number of conditional branches incorrect
system.cpu.branchPred.condPredicted          15859764                       # Number of conditional branches predicted
system.cpu.branchPred.indirectHits             287877                       # Number of indirect target hits.
system.cpu.branchPred.indirectLookups          591801                       # Number of indirect predictor lookups.
system.cpu.branchPred.indirectMisses           303924                       # Number of indirect misses.
system.cpu.branchPred.lookups                19700240                       # Number of BP lookups
system.cpu.branchPred.usedRAS                 1050616                       # Number of times the RAS was used to get a target.
system.cpu.branchPredindirectMispredicted         1102                       # Number of mispredicted indirect branches.
system.cpu.committedInsts                   100000000                       # Number of instructions committed
system.cpu.committedOps                     109139424                       # Number of ops (including micro ops) committed
system.cpu.cpi                               1.066521                       # CPI: cycles per instruction
system.cpu.discardedOps                        429259                       # Number of ops (including micro ops) which were discarded before commit
system.cpu.dtb.accesses                             0                       # DTB accesses
system.cpu.dtb.align_faults                         0                       # Number of TLB faults due to alignment restrictions
system.cpu.dtb.domain_faults                        0                       # Number of TLB faults due to domain restrictions
system.cpu.dtb.flush_entries                        0                       # Number of entries that have been flushed from TLB
system.cpu.dtb.flush_tlb                            0                       # Number of times complete TLB was flushed
system.cpu.dtb.flush_tlb_asid                       0                       # Number of times TLB was flushed by ASID
system.cpu.dtb.flush_tlb_mva                        0                       # Number of times TLB was flushed by MVA
system.cpu.dtb.flush_tlb_mva_asid                   0                       # Number of times TLB was flushed by MVA & ASID
system.cpu.dtb.hits                                 0                       # DTB hits
system.cpu.dtb.inst_accesses                        0                       # ITB inst accesses
system.cpu.dtb.inst_hits                            0                       # ITB inst hits
system.cpu.dtb.inst_misses                          0                       # ITB inst misses
system.cpu.dtb.misses                               0                       # DTB misses
system.cpu.dtb.perms_faults                         0                       # Number of TLB faults due to permissions restrictions
system.cpu.dtb.prefetch_faults                      0                       # Number of TLB faults due to prefetch
system.cpu.dtb.read_accesses                        0                       # DTB read accesses
system.cpu.dtb.read_hits                            0                       # DTB read hits
system.cpu.dtb.read_misses                          0                       # DTB read misses
system.cpu.dtb.stage2_mmu.stage2_tlb.accesses            0                       # DTB accesses
system.cpu.dtb.stage2_mmu.stage2_tlb.align_faults            0                       # Number of TLB faults due to alignment restrictions
system.cpu.dtb.stage2_mmu.stage2_tlb.domain_faults            0                       # Number of TLB faults due to domain restrictions
system.cpu.dtb.stage2_mmu.stage2_tlb.flush_entries            0                       # Number of entries that have been flushed from TLB
system.cpu.dtb.stage2_mmu.stage2_tlb.flush_tlb            0                       # Number of times complete TLB was flushed
system.cpu.dtb.stage2_mmu.stage2_tlb.flush_tlb_asid            0                       # Number of times TLB was flushed by ASID
system.cpu.dtb.stage2_mmu.stage2_tlb.flush_tlb_mva            0                       # Number of times TLB was flushed by MVA
system.cpu.dtb.stage2_mmu.stage2_tlb.flush_tlb_mva_asid            0                       # Number of times TLB was flushed by MVA & ASID
system.cpu.dtb.stage2_mmu.stage2_tlb.hits            0                       # DTB hits
system.cpu.dtb.stage2_mmu.stage2_tlb.inst_accesses            0                       # ITB inst accesses
system.cpu.dtb.stage2_mmu.stage2_tlb.inst_hits            0                       # ITB inst hits
system.cpu.dtb.stage2_mmu.stage2_tlb.inst_misses            0                       # ITB inst misses
system.cpu.dtb.stage2_mmu.stage2_tlb.misses            0                       # DTB misses
system.cpu.dtb.stage2_mmu.stage2_tlb.perms_faults            0                       # Number of TLB faults due to permissions restrictions
system.cpu.dtb.stage2_mmu.stage2_tlb.prefetch_faults            0                       # Number of TLB faults due to prefetch
system.cpu.dtb.stage2_mmu.stage2_tlb.read_accesses            0                       # DTB read accesses
system.cpu.dtb.stage2_mmu.stage2_tlb.read_hits            0                       # DTB read hits
system.cpu.dtb.stage2_mmu.stage2_tlb.read_misses            0                       # DTB read misses
system.cpu.dtb.stage2_mmu.stage2_tlb.walker.walkRequestOrigin_Requested::Data            0                       # Table walker requests started/completed, data/inst
system.cpu.dtb.stage2_mmu.stage2_tlb.walker.walkRequestOrigin_Requested::Inst            0                       # Table walker requests started/completed, data/inst
system.cpu.dtb.stage2_mmu.stage2_tlb.walker.walkRequestOrigin_Requested::total            0                       # Table walker requests started/completed, data/inst
system.cpu.dtb.stage2_mmu.stage2_tlb.walker.walkRequestOrigin_Completed::Data            0                       # Table walker requests started/completed, data/inst
system.cpu.dtb.stage2_mmu.stage2_tlb.walker.walkRequestOrigin_Completed::Inst            0                       # Table walker requests started/completed, data/inst
system.cpu.dtb.stage2_mmu.stage2_tlb.walker.walkRequestOrigin_Completed::total            0                       # Table walker requests started/completed, data/inst
system.cpu.dtb.stage2_mmu.stage2_tlb.walker.walkRequestOrigin::total            0                       # Table walker requests started/completed, data/inst
system.cpu.dtb.stage2_mmu.stage2_tlb.walker.walks            0                       # Table walker walks requested
system.cpu.dtb.stage2_mmu.stage2_tlb.write_accesses            0                       # DTB write accesses
system.cpu.dtb.stage2_mmu.stage2_tlb.write_hits            0                       # DTB write hits
system.cpu.dtb.stage2_mmu.stage2_tlb.write_misses            0                       # DTB write misses
system.cpu.dtb.walker.walkRequestOrigin_Requested::Data            0                       # Table walker requests started/completed, data/inst
system.cpu.dtb.walker.walkRequestOrigin_Requested::Inst            0                       # Table walker requests started/completed, data/inst
system.cpu.dtb.walker.walkRequestOrigin_Requested::total            0                       # Table walker requests started/completed, data/inst
system.cpu.dtb.walker.walkRequestOrigin_Completed::Data            0                       # Table walker requests started/completed, data/inst
system.cpu.dtb.walker.walkRequestOrigin_Completed::Inst            0                       # Table walker requests started/completed, data/inst
system.cpu.dtb.walker.walkRequestOrigin_Completed::total            0                       # Table walker requests started/completed, data/inst
system.cpu.dtb.walker.walkRequestOrigin::total            0                       # Table walker requests started/completed, data/inst
system.cpu.dtb.walker.walks                         0                       # Table walker walks requested
system.cpu.dtb.write_accesses                       0                       # DTB write accesses
system.cpu.dtb.write_hits                           0                       # DTB write hits
system.cpu.dtb.write_misses                         0                       # DTB write misses
system.cpu.fetch2.amo_instructions                  0                       # Number of memory atomic instructions successfully decoded
system.cpu.fetch2.fp_instructions                   0                       # Number of floating point instructions successfully decoded
system.cpu.fetch2.int_instructions           49132358                       # Number of integer instructions successfully decoded
system.cpu.fetch2.load_instructions          17518722                       # Number of memory load instructions successfully decoded
system.cpu.fetch2.store_instructions         10083674                       # Number of memory store instructions successfully decoded
system.cpu.fetch2.vec_instructions                  0                       # Number of SIMD instructions successfully decoded
system.cpu.idleCycles                         1391872                       # Total number of cycles that the object has spent stopped
system.cpu.ipc                               0.937628                       # IPC: instructions per cycle
system.cpu.itb.accesses                             0                       # DTB accesses
system.cpu.itb.align_faults                         0                       # Number of TLB faults due to alignment restrictions
system.cpu.itb.domain_faults                        0                       # Number of TLB faults due to domain restrictions
system.cpu.itb.flush_entries                        0                       # Number of entries that have been flushed from TLB
system.cpu.itb.flush_tlb                            0                       # Number of times complete TLB was flushed
system.cpu.itb.flush_tlb_asid                       0                       # Number of times TLB was flushed by ASID
system.cpu.itb.flush_tlb_mva                        0                       # Number of times TLB was flushed by MVA
system.cpu.itb.flush_tlb_mva_asid                   0                       # Number of times TLB was flushed by MVA & ASID
system.cpu.itb.hits                                 0                       # DTB hits
system.cpu.itb.inst_accesses                        0                       # ITB inst accesses
system.cpu.itb.inst_hits                            0                       # ITB inst hits
system.cpu.itb.inst_misses                          0                       # ITB inst misses
system.cpu.itb.misses                               0                       # DTB misses
system.cpu.itb.perms_faults                         0                       # Number of TLB faults due to permissions restrictions
system.cpu.itb.prefetch_faults                      0                       # Number of TLB faults due to prefetch
system.cpu.itb.read_accesses                        0                       # DTB read accesses
system.cpu.itb.read_hits                            0                       # DTB read hits
system.cpu.itb.read_misses                          0                       # DTB read misses
system.cpu.itb.stage2_mmu.stage2_tlb.accesses            0                       # DTB accesses
system.cpu.itb.stage2_mmu.stage2_tlb.align_faults            0                       # Number of TLB faults due to alignment restrictions
system.cpu.itb.stage2_mmu.stage2_tlb.domain_faults            0                       # Number of TLB faults due to domain restrictions
system.cpu.itb.stage2_mmu.stage2_tlb.flush_entries            0                       # Number of entries that have been flushed from TLB
system.cpu.itb.stage2_mmu.stage2_tlb.flush_tlb            0                       # Number of times complete TLB was flushed
system.cpu.itb.stage2_mmu.stage2_tlb.flush_tlb_asid            0                       # Number of times TLB was flushed by ASID
system.cpu.itb.stage2_mmu.stage2_tlb.flush_tlb_mva            0                       # Number of times TLB was flushed by MVA
system.cpu.itb.stage2_mmu.stage2_tlb.flush_tlb_mva_asid            0                       # Number of times TLB was flushed by MVA & ASID
system.cpu.itb.stage2_mmu.stage2_tlb.hits            0                       # DTB hits
system.cpu.itb.stage2_mmu.stage2_tlb.inst_accesses            0                       # ITB inst accesses
system.cpu.itb.stage2_mmu.stage2_tlb.inst_hits            0                       # ITB inst hits
system.cpu.itb.stage2_mmu.stage2_tlb.inst_misses            0                       # ITB inst misses
system.cpu.itb.stage2_mmu.stage2_tlb.misses            0                       # DTB misses
system.cpu.itb.stage2_mmu.stage2_tlb.perms_faults            0                       # Number of TLB faults due to permissions restrictions
system.cpu.itb.stage2_mmu.stage2_tlb.prefetch_faults            0                       # Number of TLB faults due to prefetch
system.cpu.itb.stage2_mmu.stage2_tlb.read_accesses            0                       # DTB read accesses
system.cpu.itb.stage2_mmu.stage2_tlb.read_hits            0                       # DTB read hits
system.cpu.itb.stage2_mmu.stage2_tlb.read_misses            0                       # DTB read misses
system.cpu.itb.stage2_mmu.stage2_tlb.walker.walkRequestOrigin_Requested::Data            0                       # Table walker requests started/completed, data/inst
system.cpu.itb.stage2_mmu.stage2_tlb.walker.walkRequestOrigin_Requested::Inst            0                       # Table walker requests started/completed, data/inst
system.cpu.itb.stage2_mmu.stage2_tlb.walker.walkRequestOrigin_Requested::total            0                       # Table walker requests started/completed, data/inst
system.cpu.itb.stage2_mmu.stage2_tlb.walker.walkRequestOrigin_Completed::Data            0                       # Table walker requests started/completed, data/inst
system.cpu.itb.stage2_mmu.stage2_tlb.walker.walkRequestOrigin_Completed::Inst            0                       # Table walker requests started/completed, data/inst
system.cpu.itb.stage2_mmu.stage2_tlb.walker.walkRequestOrigin_Completed::total            0                       # Table walker requests started/completed, data/inst
system.cpu.itb.stage2_mmu.stage2_tlb.walker.walkRequestOrigin::total            0                       # Table walker requests started/completed, data/inst
system.cpu.itb.stage2_mmu.stage2_tlb.walker.walks            0                       # Table walker walks requested
system.cpu.itb.stage2_mmu.stage2_tlb.write_accesses            0                       # DTB write accesses
system.cpu.itb.stage2_mmu.stage2_tlb.write_hits            0                       # DTB write hits
system.cpu.itb.stage2_mmu.stage2_tlb.write_misses            0                       # DTB write misses
system.cpu.itb.walker.walkRequestOrigin_Requested::Data            0                       # Table walker requests started/completed, data/inst
system.cpu.itb.walker.walkRequestOrigin_Requested::Inst            0                       # Table walker requests started/completed, data/inst
system.cpu.itb.walker.walkRequestOrigin_Requested::total            0                       # Table walker requests started/completed, data/inst
system.cpu.itb.walker.walkRequestOrigin_Completed::Data            0                       # Table walker requests started/completed, data/inst
system.cpu.itb.walker.walkRequestOrigin_Completed::Inst            0                       # Table walker requests started/completed, data/inst
system.cpu.itb.walker.walkRequestOrigin_Completed::total            0                       # Table walker requests started/completed, data/inst
system.cpu.itb.walker.walkRequestOrigin::total            0                       # Table walker requests started/completed, data/inst
system.cpu.itb.walker.walks                         0                       # Table walker walks requested
system.cpu.itb.write_accesses                       0                       # DTB write accesses
system.cpu.itb.write_hits                           0                       # DTB write hits
system.cpu.itb.write_misses                         0                       # DTB write misses
system.cpu.numCycles                        106652122                       # number of cpu cycles simulated
system.cpu.numFetchSuspends                         0                       # Number of times Execute suspended instruction fetching
system.cpu.numWorkItemsCompleted                    0                       # number of work items this cpu completed
system.cpu.numWorkItemsStarted                      0                       # number of work items this cpu started
system.cpu.op_class_0::No_OpClass                   0      0.00%      0.00% # Class of committed instruction
system.cpu.op_class_0::IntAlu                72223173     66.18%     66.18% # Class of committed instruction
system.cpu.op_class_0::IntMult                 547032      0.50%     66.68% # Class of committed instruction
system.cpu.op_class_0::IntDiv                       0      0.00%     66.68% # Class of committed instruction
system.cpu.op_class_0::FloatAdd                     0      0.00%     66.68% # Class of committed instruction
system.cpu.op_class_0::FloatCmp                     0      0.00%     66.68% # Class of committed instruction
system.cpu.op_class_0::FloatCvt                     0      0.00%     66.68% # Class of committed instruction
system.cpu.op_class_0::FloatMult                    0      0.00%     66.68% # Class of committed instruction
system.cpu.op_class_0::FloatMultAcc                 0      0.00%     66.68% # Class of committed instruction
system.cpu.op_class_0::FloatDiv                     0      0.00%     66.68% # Class of committed instruction
system.cpu.op_class_0::FloatMisc                    0      0.00%     66.68% # Class of committed instruction
system.cpu.op_class_0::FloatSqrt                    0      0.00%     66.68% # Class of committed instruction
system.cpu.op_class_0::SimdAdd                 231656      0.21%     66.89% # Class of committed instruction
system.cpu.op_class_0::SimdAddAcc                   0      0.00%     66.89% # Class of committed instruction
system.cpu.op_class_0::SimdAlu                 148482      0.14%     67.02% # Class of committed instruction
system.cpu.op_class_0::SimdCmp                 115828      0.11%     67.13% # Class of committed instruction
system.cpu.op_class_0::SimdCvt                      0      0.00%     67.13% # Class of committed instruction
system.cpu.op_class_0::SimdMisc                 42808      0.04%     67.17% # Class of committed instruction
system.cpu.op_class_0::SimdMult                     0      0.00%     67.17% # Class of committed instruction
system.cpu.op_class_0::SimdMultAcc                  0      0.00%     67.17% # Class of committed instruction
system.cpu.op_class_0::SimdShift                    0      0.00%     67.17% # Class of committed instruction
system.cpu.op_class_0::SimdShiftAcc                 0      0.00%     67.17% # Class of committed instruction
system.cpu.op_class_0::SimdDiv                      0      0.00%     67.17% # Class of committed instruction
system.cpu.op_class_0::SimdSqrt                     0      0.00%     67.17% # Class of committed instruction
system.cpu.op_class_0::SimdFloatAdd                 0      0.00%     67.17% # Class of committed instruction
system.cpu.op_class_0::SimdFloatAlu                 0      0.00%     67.17% # Class of committed instruction
system.cpu.op_class_0::SimdFloatCmp                 0      0.00%     67.17% # Class of committed instruction
system.cpu.op_class_0::SimdFloatCvt                 0      0.00%     67.17% # Class of committed instruction
system.cpu.op_class_0::SimdFloatDiv                 0      0.00%     67.17% # Class of committed instruction
system.cpu.op_class_0::SimdFloatMisc           159857      0.15%     67.32% # Class of committed instruction
system.cpu.op_class_0::SimdFloatMult                0      0.00%     67.32% # Class of committed instruction
system.cpu.op_class_0::SimdFloatMultAcc             0      0.00%     67.32% # Class of committed instruction
system.cpu.op_class_0::SimdFloatSqrt                0      0.00%     67.32% # Class of committed instruction
system.cpu.op_class_0::SimdReduceAdd                0      0.00%     67.32% # Class of committed instruction
system.cpu.op_class_0::SimdReduceAlu                0      0.00%     67.32% # Class of committed instruction
system.cpu.op_class_0::SimdReduceCmp                0      0.00%     67.32% # Class of committed instruction
system.cpu.op_class_0::SimdFloatReduceAdd            0      0.00%     67.32% # Class of committed instruction
system.cpu.op_class_0::SimdFloatReduceCmp            0      0.00%     67.32% # Class of committed instruction
system.cpu.op_class_0::SimdAes                      0      0.00%     67.32% # Class of committed instruction
system.cpu.op_class_0::SimdAesMix                   0      0.00%     67.32% # Class of committed instruction
system.cpu.op_class_0::SimdSha1Hash                 0      0.00%     67.32% # Class of committed instruction
system.cpu.op_class_0::SimdSha1Hash2                0      0.00%     67.32% # Class of committed instruction
system.cpu.op_class_0::SimdSha256Hash               0      0.00%     67.32% # Class of committed instruction
system.cpu.op_class_0::SimdSha256Hash2              0      0.00%     67.32% # Class of committed instruction
system.cpu.op_class_0::SimdShaSigma2                0      0.00%     67.32% # Class of committed instruction
system.cpu.op_class_0::SimdShaSigma3                0      0.00%     67.32% # Class of committed instruction
system.cpu.op_class_0::SimdPredAlu                  0      0.00%     67.32% # Class of committed instruction
system.cpu.op_class_0::MemRead               20932798     19.18%     86.50% # Class of committed instruction
system.cpu.op_class_0::MemWrite              14737790     13.50%    100.00% # Class of committed instruction
system.cpu.op_class_0::FloatMemRead                 0      0.00%    100.00% # Class of committed instruction
system.cpu.op_class_0::FloatMemWrite                0      0.00%    100.00% # Class of committed instruction
system.cpu.op_class_0::IprAccess                    0      0.00%    100.00% # Class of committed instruction
system.cpu.op_class_0::InstPrefetch                 0      0.00%    100.00% # Class of committed instruction
system.cpu.op_class_0::total                109139424                       # Class of committed instruction
system.cpu.tickCycles                       105260250                       # Number of cycles that the object actually ticked
system.cpu.workload.numSyscalls                    85                       # Number of system calls
system.membus.snoop_filter.hit_multi_requests            0                       # Number of requests hitting in the snoop filter with multiple (>1) holders of the requested data.
system.membus.snoop_filter.hit_multi_snoops            0                       # Number of snoops hitting in the snoop filter with multiple (>1) holders of the requested data.
system.membus.snoop_filter.hit_single_requests            0                       # Number of requests hitting in the snoop filter with a single holder of the requested data.
system.membus.snoop_filter.hit_single_snoops            0                       # Number of snoops hitting in the snoop filter with a single holder of the requested data.
system.membus.snoop_filter.tot_requests          9792                       # Total number of requests made to the snoop filter.
system.membus.snoop_filter.tot_snoops               0                       # Total number of snoops made to the snoop filter.
system.tol2bus.snoop_filter.hit_multi_requests           24                       # Number of requests hitting in the snoop filter with multiple (>1) holders of the requested data.
system.tol2bus.snoop_filter.hit_multi_snoops            0                       # Number of snoops hitting in the snoop filter with multiple (>1) holders of the requested data.
system.tol2bus.snoop_filter.hit_single_requests        19126                       # Number of requests hitting in the snoop filter with a single holder of the requested data.
system.tol2bus.snoop_filter.hit_single_snoops            0                       # Number of snoops hitting in the snoop filter with a single holder of the requested data.
system.tol2bus.snoop_filter.tot_requests        38953                       # Total number of requests made to the snoop filter.
system.tol2bus.snoop_filter.tot_snoops              0                       # Total number of snoops made to the snoop filter.
system.membus.pwrStateResidencyTicks::UNDEFINED 106652122000                       # Cumulative time (in ticks) in various power states
system.membus.trans_dist::ReadResp                297                       # Transaction distribution
system.membus.trans_dist::ReadExReq              9495                       # Transaction distribution
system.membus.trans_dist::ReadExResp             9495                       # Transaction distribution
system.membus.trans_dist::ReadSharedReq           297                       # Transaction distribution
system.membus.pkt_count_system.l2.mem_side::system.mem_ctrls.port        19584                       # Packet count per connected master and slave (bytes)
system.membus.pkt_count::total                  19584                       # Packet count per connected master and slave (bytes)
system.membus.pkt_size_system.l2.mem_side::system.mem_ctrls.port      2506752                       # Cumulative packet size per connected master and slave (bytes)
system.membus.pkt_size::total                 2506752                       # Cumulative packet size per connected master and slave (bytes)
system.membus.snoops                                0                       # Total snoops (count)
system.membus.snoopTraffic                          0                       # Total snoop traffic (bytes)
system.membus.snoop_fanout::samples              9792                       # Request fanout histogram
system.membus.snoop_fanout::mean                    0                       # Request fanout histogram
system.membus.snoop_fanout::stdev                   0                       # Request fanout histogram
system.membus.snoop_fanout::underflows              0      0.00%      0.00% # Request fanout histogram
system.membus.snoop_fanout::0                    9792    100.00%    100.00% # Request fanout histogram
system.membus.snoop_fanout::1                       0      0.00%    100.00% # Request fanout histogram
system.membus.snoop_fanout::overflows               0      0.00%    100.00% # Request fanout histogram
system.membus.snoop_fanout::min_value               0                       # Request fanout histogram
system.membus.snoop_fanout::max_value               0                       # Request fanout histogram
system.membus.snoop_fanout::total                9792                       # Request fanout histogram
system.membus.respLayer1.occupancy          171186000                       # Layer occupancy (ticks)
system.membus.respLayer1.utilization              0.2                       # Layer utilization (%)
system.membus.reqLayer0.occupancy             9792000                       # Layer occupancy (ticks)
system.membus.reqLayer0.utilization               0.0                       # Layer utilization (%)
system.tol2bus.pwrStateResidencyTicks::UNDEFINED 106652122000                       # Cumulative time (in ticks) in various power states
system.tol2bus.trans_dist::ReadResp             10336                       # Transaction distribution
system.tol2bus.trans_dist::WritebackDirty        18480                       # Transaction distribution
system.tol2bus.trans_dist::WritebackClean          246                       # Transaction distribution
system.tol2bus.trans_dist::CleanEvict             395                       # Transaction distribution
system.tol2bus.trans_dist::ReadExReq             9496                       # Transaction distribution
system.tol2bus.trans_dist::ReadExResp            9496                       # Transaction distribution
system.tol2bus.trans_dist::ReadCleanReq           445                       # Transaction distribution
system.tol2bus.trans_dist::ReadSharedReq         9891                       # Transaction distribution
system.tol2bus.pkt_count_system.cpu.icache.mem_side::system.l2.cpu_side         1136                       # Packet count per connected master and slave (bytes)
system.tol2bus.pkt_count_system.cpu.dcache.mem_side::system.l2.cpu_side        57649                       # Packet count per connected master and slave (bytes)
system.tol2bus.pkt_count::total                 58785                       # Packet count per connected master and slave (bytes)
system.tol2bus.pkt_size_system.cpu.icache.mem_side::system.l2.cpu_side       176896                       # Cumulative packet size per connected master and slave (bytes)
system.tol2bus.pkt_size_system.cpu.dcache.mem_side::system.l2.cpu_side      9693952                       # Cumulative packet size per connected master and slave (bytes)
system.tol2bus.pkt_size::total                9870848                       # Cumulative packet size per connected master and slave (bytes)
system.tol2bus.snoops                               0                       # Total snoops (count)
system.tol2bus.snoopTraffic                         0                       # Total snoop traffic (bytes)
system.tol2bus.snoop_fanout::samples            19832                       # Request fanout histogram
system.tol2bus.snoop_fanout::mean            0.001462                       # Request fanout histogram
system.tol2bus.snoop_fanout::stdev           0.038213                       # Request fanout histogram
system.tol2bus.snoop_fanout::underflows             0      0.00%      0.00% # Request fanout histogram
system.tol2bus.snoop_fanout::0                  19803     99.85%     99.85% # Request fanout histogram
system.tol2bus.snoop_fanout::1                     29      0.15%    100.00% # Request fanout histogram
system.tol2bus.snoop_fanout::2                      0      0.00%    100.00% # Request fanout histogram
system.tol2bus.snoop_fanout::overflows              0      0.00%    100.00% # Request fanout histogram
system.tol2bus.snoop_fanout::min_value              0                       # Request fanout histogram
system.tol2bus.snoop_fanout::max_value              1                       # Request fanout histogram
system.tol2bus.snoop_fanout::total              19832                       # Request fanout histogram
system.tol2bus.reqLayer0.occupancy          188761000                       # Layer occupancy (ticks)
system.tol2bus.reqLayer0.utilization              0.2                       # Layer utilization (%)
system.tol2bus.respLayer1.occupancy         174485997                       # Layer occupancy (ticks)
system.tol2bus.respLayer1.utilization             0.2                       # Layer utilization (%)
system.tol2bus.respLayer0.occupancy           4005000                       # Layer occupancy (ticks)
system.tol2bus.respLayer0.utilization             0.0                       # Layer utilization (%)
system.voltage_domain.voltage                       1                       # Voltage in Volts
system.clk_domain.clock                          1000                       # Clock period in ticks
system.l2.pwrStateResidencyTicks::UNDEFINED 106652122000                       # Cumulative time (in ticks) in various power states
system.l2.demand_hits::.cpu.inst                  218                       # number of demand (read+write) hits
system.l2.demand_hits::.cpu.data                 9819                       # number of demand (read+write) hits
system.l2.demand_hits::total                    10037                       # number of demand (read+write) hits
system.l2.overall_hits::.cpu.inst                 218                       # number of overall hits
system.l2.overall_hits::.cpu.data                9819                       # number of overall hits
system.l2.overall_hits::total                   10037                       # number of overall hits
system.l2.demand_misses::.cpu.inst                227                       # number of demand (read+write) misses
system.l2.demand_misses::.cpu.data               9568                       # number of demand (read+write) misses
system.l2.demand_misses::total                   9795                       # number of demand (read+write) misses
system.l2.overall_misses::.cpu.inst               227                       # number of overall misses
system.l2.overall_misses::.cpu.data              9568                       # number of overall misses
system.l2.overall_misses::total                  9795                       # number of overall misses
system.l2.demand_miss_latency::.cpu.inst     26219000                       # number of demand (read+write) miss cycles
system.l2.demand_miss_latency::.cpu.data   1198703000                       # number of demand (read+write) miss cycles
system.l2.demand_miss_latency::total       1224922000                       # number of demand (read+write) miss cycles
system.l2.overall_miss_latency::.cpu.inst     26219000                       # number of overall miss cycles
system.l2.overall_miss_latency::.cpu.data   1198703000                       # number of overall miss cycles
system.l2.overall_miss_latency::total      1224922000                       # number of overall miss cycles
system.l2.demand_accesses::.cpu.inst              445                       # number of demand (read+write) accesses
system.l2.demand_accesses::.cpu.data            19387                       # number of demand (read+write) accesses
system.l2.demand_accesses::total                19832                       # number of demand (read+write) accesses
system.l2.overall_accesses::.cpu.inst             445                       # number of overall (read+write) accesses
system.l2.overall_accesses::.cpu.data           19387                       # number of overall (read+write) accesses
system.l2.overall_accesses::total               19832                       # number of overall (read+write) accesses
system.l2.demand_miss_rate::.cpu.inst        0.510112                       # miss rate for demand accesses
system.l2.demand_miss_rate::.cpu.data        0.493527                       # miss rate for demand accesses
system.l2.demand_miss_rate::total            0.493899                       # miss rate for demand accesses
system.l2.overall_miss_rate::.cpu.inst       0.510112                       # miss rate for overall accesses
system.l2.overall_miss_rate::.cpu.data       0.493527                       # miss rate for overall accesses
system.l2.overall_miss_rate::total           0.493899                       # miss rate for overall accesses
system.l2.demand_avg_miss_latency::.cpu.inst 115502.202643                       # average overall miss latency
system.l2.demand_avg_miss_latency::.cpu.data 125282.504181                       # average overall miss latency
system.l2.demand_avg_miss_latency::total 125055.844819                       # average overall miss latency
system.l2.overall_avg_miss_latency::.cpu.inst 115502.202643                       # average overall miss latency
system.l2.overall_avg_miss_latency::.cpu.data 125282.504181                       # average overall miss latency
system.l2.overall_avg_miss_latency::total 125055.844819                       # average overall miss latency
system.l2.blocked_cycles::no_mshrs                  0                       # number of cycles access was blocked
system.l2.blocked_cycles::no_targets                0                       # number of cycles access was blocked
system.l2.blocked::no_mshrs                         0                       # number of cycles access was blocked
system.l2.blocked::no_targets                       0                       # number of cycles access was blocked
system.l2.avg_blocked_cycles::no_mshrs            nan                       # average number of cycles each access was blocked
system.l2.avg_blocked_cycles::no_targets          nan                       # average number of cycles each access was blocked
system.l2.demand_mshr_hits::.cpu.data               3                       # number of demand (read+write) MSHR hits
system.l2.demand_mshr_hits::total                   3                       # number of demand (read+write) MSHR hits
system.l2.overall_mshr_hits::.cpu.data              3                       # number of overall MSHR hits
system.l2.overall_mshr_hits::total                  3                       # number of overall MSHR hits
system.l2.demand_mshr_misses::.cpu.inst           227                       # number of demand (read+write) MSHR misses
system.l2.demand_mshr_misses::.cpu.data          9565                       # number of demand (read+write) MSHR misses
system.l2.demand_mshr_misses::total              9792                       # number of demand (read+write) MSHR misses
system.l2.overall_mshr_misses::.cpu.inst          227                       # number of overall MSHR misses
system.l2.overall_mshr_misses::.cpu.data         9565                       # number of overall MSHR misses
system.l2.overall_mshr_misses::total             9792                       # number of overall MSHR misses
system.l2.demand_mshr_miss_latency::.cpu.inst     21679000                       # number of demand (read+write) MSHR miss cycles
system.l2.demand_mshr_miss_latency::.cpu.data   1007082000                       # number of demand (read+write) MSHR miss cycles
system.l2.demand_mshr_miss_latency::total   1028761000                       # number of demand (read+write) MSHR miss cycles
system.l2.overall_mshr_miss_latency::.cpu.inst     21679000                       # number of overall MSHR miss cycles
system.l2.overall_mshr_miss_latency::.cpu.data   1007082000                       # number of overall MSHR miss cycles
system.l2.overall_mshr_miss_latency::total   1028761000                       # number of overall MSHR miss cycles
system.l2.demand_mshr_miss_rate::.cpu.inst     0.510112                       # mshr miss rate for demand accesses
system.l2.demand_mshr_miss_rate::.cpu.data     0.493372                       # mshr miss rate for demand accesses
system.l2.demand_mshr_miss_rate::total       0.493747                       # mshr miss rate for demand accesses
system.l2.overall_mshr_miss_rate::.cpu.inst     0.510112                       # mshr miss rate for overall accesses
system.l2.overall_mshr_miss_rate::.cpu.data     0.493372                       # mshr miss rate for overall accesses
system.l2.overall_mshr_miss_rate::total      0.493747                       # mshr miss rate for overall accesses
system.l2.demand_avg_mshr_miss_latency::.cpu.inst 95502.202643                       # average overall mshr miss latency
system.l2.demand_avg_mshr_miss_latency::.cpu.data 105288.238369                       # average overall mshr miss latency
system.l2.demand_avg_mshr_miss_latency::total 105061.376634                       # average overall mshr miss latency
system.l2.overall_avg_mshr_miss_latency::.cpu.inst 95502.202643                       # average overall mshr miss latency
system.l2.overall_avg_mshr_miss_latency::.cpu.data 105288.238369                       # average overall mshr miss latency
system.l2.overall_avg_mshr_miss_latency::total 105061.376634                       # average overall mshr miss latency
system.l2.replacements                              0                       # number of replacements
system.l2.WritebackDirty_hits::.writebacks        18480                       # number of WritebackDirty hits
system.l2.WritebackDirty_hits::total            18480                       # number of WritebackDirty hits
system.l2.WritebackDirty_accesses::.writebacks        18480                       # number of WritebackDirty accesses(hits+misses)
system.l2.WritebackDirty_accesses::total        18480                       # number of WritebackDirty accesses(hits+misses)
system.l2.WritebackClean_hits::.writebacks          239                       # number of WritebackClean hits
system.l2.WritebackClean_hits::total              239                       # number of WritebackClean hits
system.l2.WritebackClean_accesses::.writebacks          239                       # number of WritebackClean accesses(hits+misses)
system.l2.WritebackClean_accesses::total          239                       # number of WritebackClean accesses(hits+misses)
system.l2.ReadExReq_hits::.cpu.data                 1                       # number of ReadExReq hits
system.l2.ReadExReq_hits::total                     1                       # number of ReadExReq hits
system.l2.ReadExReq_misses::.cpu.data            9495                       # number of ReadExReq misses
system.l2.ReadExReq_misses::total                9495                       # number of ReadExReq misses
system.l2.ReadExReq_miss_latency::.cpu.data   1190126000                       # number of ReadExReq miss cycles
system.l2.ReadExReq_miss_latency::total    1190126000                       # number of ReadExReq miss cycles
system.l2.ReadExReq_accesses::.cpu.data          9496                       # number of ReadExReq accesses(hits+misses)
system.l2.ReadExReq_accesses::total              9496                       # number of ReadExReq accesses(hits+misses)
system.l2.ReadExReq_miss_rate::.cpu.data     0.999895                       # miss rate for ReadExReq accesses
system.l2.ReadExReq_miss_rate::total         0.999895                       # miss rate for ReadExReq accesses
system.l2.ReadExReq_avg_miss_latency::.cpu.data 125342.390732                       # average ReadExReq miss latency
system.l2.ReadExReq_avg_miss_latency::total 125342.390732                       # average ReadExReq miss latency
system.l2.ReadExReq_mshr_misses::.cpu.data         9495                       # number of ReadExReq MSHR misses
system.l2.ReadExReq_mshr_misses::total           9495                       # number of ReadExReq MSHR misses
system.l2.ReadExReq_mshr_miss_latency::.cpu.data   1000226000                       # number of ReadExReq MSHR miss cycles
system.l2.ReadExReq_mshr_miss_latency::total   1000226000                       # number of ReadExReq MSHR miss cycles
system.l2.ReadExReq_mshr_miss_rate::.cpu.data     0.999895                       # mshr miss rate for ReadExReq accesses
system.l2.ReadExReq_mshr_miss_rate::total     0.999895                       # mshr miss rate for ReadExReq accesses
system.l2.ReadExReq_avg_mshr_miss_latency::.cpu.data 105342.390732                       # average ReadExReq mshr miss latency
system.l2.ReadExReq_avg_mshr_miss_latency::total 105342.390732                       # average ReadExReq mshr miss latency
system.l2.ReadCleanReq_hits::.cpu.inst            218                       # number of ReadCleanReq hits
system.l2.ReadCleanReq_hits::total                218                       # number of ReadCleanReq hits
system.l2.ReadCleanReq_misses::.cpu.inst          227                       # number of ReadCleanReq misses
system.l2.ReadCleanReq_misses::total              227                       # number of ReadCleanReq misses
system.l2.ReadCleanReq_miss_latency::.cpu.inst     26219000                       # number of ReadCleanReq miss cycles
system.l2.ReadCleanReq_miss_latency::total     26219000                       # number of ReadCleanReq miss cycles
system.l2.ReadCleanReq_accesses::.cpu.inst          445                       # number of ReadCleanReq accesses(hits+misses)
system.l2.ReadCleanReq_accesses::total            445                       # number of ReadCleanReq accesses(hits+misses)
system.l2.ReadCleanReq_miss_rate::.cpu.inst     0.510112                       # miss rate for ReadCleanReq accesses
system.l2.ReadCleanReq_miss_rate::total      0.510112                       # miss rate for ReadCleanReq accesses
system.l2.ReadCleanReq_avg_miss_latency::.cpu.inst 115502.202643                       # average ReadCleanReq miss latency
system.l2.ReadCleanReq_avg_miss_latency::total 115502.202643                       # average ReadCleanReq miss latency
system.l2.ReadCleanReq_mshr_misses::.cpu.inst          227                       # number of ReadCleanReq MSHR misses
system.l2.ReadCleanReq_mshr_misses::total          227                       # number of ReadCleanReq MSHR misses
system.l2.ReadCleanReq_mshr_miss_latency::.cpu.inst     21679000                       # number of ReadCleanReq MSHR miss cycles
system.l2.ReadCleanReq_mshr_miss_latency::total     21679000                       # number of ReadCleanReq MSHR miss cycles
system.l2.ReadCleanReq_mshr_miss_rate::.cpu.inst     0.510112                       # mshr miss rate for ReadCleanReq accesses
system.l2.ReadCleanReq_mshr_miss_rate::total     0.510112                       # mshr miss rate for ReadCleanReq accesses
system.l2.ReadCleanReq_avg_mshr_miss_latency::.cpu.inst 95502.202643                       # average ReadCleanReq mshr miss latency
system.l2.ReadCleanReq_avg_mshr_miss_latency::total 95502.202643                       # average ReadCleanReq mshr miss latency
system.l2.ReadSharedReq_hits::.cpu.data          9818                       # number of ReadSharedReq hits
system.l2.ReadSharedReq_hits::total              9818                       # number of ReadSharedReq hits
system.l2.ReadSharedReq_misses::.cpu.data           73                       # number of ReadSharedReq misses
system.l2.ReadSharedReq_misses::total              73                       # number of ReadSharedReq misses
system.l2.ReadSharedReq_miss_latency::.cpu.data      8577000                       # number of ReadSharedReq miss cycles
system.l2.ReadSharedReq_miss_latency::total      8577000                       # number of ReadSharedReq miss cycles
system.l2.ReadSharedReq_accesses::.cpu.data         9891                       # number of ReadSharedReq accesses(hits+misses)
system.l2.ReadSharedReq_accesses::total          9891                       # number of ReadSharedReq accesses(hits+misses)
system.l2.ReadSharedReq_miss_rate::.cpu.data     0.007380                       # miss rate for ReadSharedReq accesses
system.l2.ReadSharedReq_miss_rate::total     0.007380                       # miss rate for ReadSharedReq accesses
system.l2.ReadSharedReq_avg_miss_latency::.cpu.data 117493.150685                       # average ReadSharedReq miss latency
system.l2.ReadSharedReq_avg_miss_latency::total 117493.150685                       # average ReadSharedReq miss latency
system.l2.ReadSharedReq_mshr_hits::.cpu.data            3                       # number of ReadSharedReq MSHR hits
system.l2.ReadSharedReq_mshr_hits::total            3                       # number of ReadSharedReq MSHR hits
system.l2.ReadSharedReq_mshr_misses::.cpu.data           70                       # number of ReadSharedReq MSHR misses
system.l2.ReadSharedReq_mshr_misses::total           70                       # number of ReadSharedReq MSHR misses
system.l2.ReadSharedReq_mshr_miss_latency::.cpu.data      6856000                       # number of ReadSharedReq MSHR miss cycles
system.l2.ReadSharedReq_mshr_miss_latency::total      6856000                       # number of ReadSharedReq MSHR miss cycles
system.l2.ReadSharedReq_mshr_miss_rate::.cpu.data     0.007077                       # mshr miss rate for ReadSharedReq accesses
system.l2.ReadSharedReq_mshr_miss_rate::total     0.007077                       # mshr miss rate for ReadSharedReq accesses
system.l2.ReadSharedReq_avg_mshr_miss_latency::.cpu.data 97942.857143                       # average ReadSharedReq mshr miss latency
system.l2.ReadSharedReq_avg_mshr_miss_latency::total 97942.857143                       # average ReadSharedReq mshr miss latency
system.l2.tags.pwrStateResidencyTicks::UNDEFINED 106652122000                       # Cumulative time (in ticks) in various power states
system.l2.tags.tagsinuse                  6902.761407                       # Cycle average of tags in use
system.l2.tags.total_refs                       38926                       # Total number of references to valid blocks.
system.l2.tags.sampled_refs                      9792                       # Sample count of references to valid blocks.
system.l2.tags.avg_refs                      3.975286                       # Average number of references to valid blocks.
system.l2.tags.warmup_cycle                    102000                       # Cycle when the warmup percentage was hit.
system.l2.tags.occ_blocks::.cpu.inst       226.697504                       # Average occupied blocks per requestor
system.l2.tags.occ_blocks::.cpu.data      6676.063903                       # Average occupied blocks per requestor
system.l2.tags.occ_percent::.cpu.inst        0.013837                       # Average percentage of cache occupancy
system.l2.tags.occ_percent::.cpu.data        0.407475                       # Average percentage of cache occupancy
system.l2.tags.occ_percent::total            0.421311                       # Average percentage of cache occupancy
system.l2.tags.occ_task_id_blocks::1024          9792                       # Occupied blocks per task id
system.l2.tags.age_task_id_blocks_1024::1            5                       # Occupied blocks per task id
system.l2.tags.age_task_id_blocks_1024::2           43                       # Occupied blocks per task id
system.l2.tags.age_task_id_blocks_1024::3          439                       # Occupied blocks per task id
system.l2.tags.age_task_id_blocks_1024::4         9305                       # Occupied blocks per task id
system.l2.tags.occ_task_id_percent::1024     0.597656                       # Percentage of cache occupancy per task id
system.l2.tags.tag_accesses                    321224                       # Number of tag accesses
system.l2.tags.data_accesses                   321224                       # Number of data accesses
system.cpu_voltage_domain.voltage                   1                       # Voltage in Volts
system.mem_ctrls.pwrStateResidencyTicks::UNDEFINED 106652122000                       # Cumulative time (in ticks) in various power states
system.mem_ctrls.bytes_read::.cpu.inst          58112                       # Number of bytes read from this memory
system.mem_ctrls.bytes_read::.cpu.data        2448640                       # Number of bytes read from this memory
system.mem_ctrls.bytes_read::total            2506752                       # Number of bytes read from this memory
system.mem_ctrls.bytes_inst_read::.cpu.inst        58112                       # Number of instructions bytes read from this memory
system.mem_ctrls.bytes_inst_read::total         58112                       # Number of instructions bytes read from this memory
system.mem_ctrls.num_reads::.cpu.inst             227                       # Number of read requests responded to by this memory
system.mem_ctrls.num_reads::.cpu.data            9565                       # Number of read requests responded to by this memory
system.mem_ctrls.num_reads::total                9792                       # Number of read requests responded to by this memory
system.mem_ctrls.bw_read::.cpu.inst            544874                       # Total read bandwidth from this memory (bytes/s)
system.mem_ctrls.bw_read::.cpu.data          22959131                       # Total read bandwidth from this memory (bytes/s)
system.mem_ctrls.bw_read::total              23504005                       # Total read bandwidth from this memory (bytes/s)
system.mem_ctrls.bw_inst_read::.cpu.inst       544874                       # Instruction read bandwidth from this memory (bytes/s)
system.mem_ctrls.bw_inst_read::total           544874                       # Instruction read bandwidth from this memory (bytes/s)
system.mem_ctrls.bw_total::.cpu.inst           544874                       # Total bandwidth to/from this memory (bytes/s)
system.mem_ctrls.bw_total::.cpu.data         22959131                       # Total bandwidth to/from this memory (bytes/s)
system.mem_ctrls.bw_total::total             23504005                       # Total bandwidth to/from this memory (bytes/s)
system.mem_ctrls.avgPriority_.cpu.inst::samples       908.00                       # Average QoS priority value for accepted requests
system.mem_ctrls.avgPriority_.cpu.data::samples     38260.00                       # Average QoS priority value for accepted requests
system.mem_ctrls.priorityMinLatency      0.000000018750                       # per QoS priority minimum request to response latency (s)
system.mem_ctrls.priorityMaxLatency      0.000000682500                       # per QoS priority maximum request to response latency (s)
system.mem_ctrls.numReadWriteTurnArounds            0                       # Number of turnarounds from READ to WRITE
system.mem_ctrls.numWriteReadTurnArounds            0                       # Number of turnarounds from WRITE to READ
system.mem_ctrls.numStayReadState               76271                       # Number of times bus staying in READ state
system.mem_ctrls.numStayWriteState                  0                       # Number of times bus staying in WRITE state
system.mem_ctrls.readReqs                        9792                       # Number of read requests accepted
system.mem_ctrls.writeReqs                          0                       # Number of write requests accepted
system.mem_ctrls.readBursts                     39168                       # Number of DRAM read bursts, including those serviced by the write queue
system.mem_ctrls.writeBursts                        0                       # Number of DRAM write bursts, including those merged in the write queue
system.mem_ctrls.servicedByWrQ                      0                       # Number of DRAM read bursts serviced by the write queue
system.mem_ctrls.mergedWrBursts                     0                       # Number of DRAM write bursts merged with an existing one
system.mem_ctrls.neitherReadNorWriteReqs            0                       # Number of requests that are neither read nor write
system.mem_ctrls.perBankRdBursts::0              2404                       # Per bank write bursts
system.mem_ctrls.perBankRdBursts::1              2360                       # Per bank write bursts
system.mem_ctrls.perBankRdBursts::2              2524                       # Per bank write bursts
system.mem_ctrls.perBankRdBursts::3              2700                       # Per bank write bursts
system.mem_ctrls.perBankRdBursts::4              2568                       # Per bank write bursts
system.mem_ctrls.perBankRdBursts::5              2532                       # Per bank write bursts
system.mem_ctrls.perBankRdBursts::6              2492                       # Per bank write bursts
system.mem_ctrls.perBankRdBursts::7              2548                       # Per bank write bursts
system.mem_ctrls.perBankRdBursts::8              2516                       # Per bank write bursts
system.mem_ctrls.perBankRdBursts::9              2360                       # Per bank write bursts
system.mem_ctrls.perBankRdBursts::10             2420                       # Per bank write bursts
system.mem_ctrls.perBankRdBursts::11             2344                       # Per bank write bursts
system.mem_ctrls.perBankRdBursts::12             2308                       # Per bank write bursts
system.mem_ctrls.perBankRdBursts::13             2372                       # Per bank write bursts
system.mem_ctrls.perBankRdBursts::14             2348                       # Per bank write bursts
system.mem_ctrls.perBankRdBursts::15             2372                       # Per bank write bursts
system.mem_ctrls.perBankWrBursts::0                 0                       # Per bank write bursts
system.mem_ctrls.perBankWrBursts::1                 0                       # Per bank write bursts
system.mem_ctrls.perBankWrBursts::2                 0                       # Per bank write bursts
system.mem_ctrls.perBankWrBursts::3                 0                       # Per bank write bursts
system.mem_ctrls.perBankWrBursts::4                 0                       # Per bank write bursts
system.mem_ctrls.perBankWrBursts::5                 0                       # Per bank write bursts
system.mem_ctrls.perBankWrBursts::6                 0                       # Per bank write bursts
system.mem_ctrls.perBankWrBursts::7                 0                       # Per bank write bursts
system.mem_ctrls.perBankWrBursts::8                 0                       # Per bank write bursts
system.mem_ctrls.perBankWrBursts::9                 0                       # Per bank write bursts
system.mem_ctrls.perBankWrBursts::10                0                       # Per bank write bursts
system.mem_ctrls.perBankWrBursts::11                0                       # Per bank write bursts
system.mem_ctrls.perBankWrBursts::12                0                       # Per bank write bursts
system.mem_ctrls.perBankWrBursts::13                0                       # Per bank write bursts
system.mem_ctrls.perBankWrBursts::14                0                       # Per bank write bursts
system.mem_ctrls.perBankWrBursts::15                0                       # Per bank write bursts
system.mem_ctrls.avgRdQLen                       4.00                       # Average read queue length when enqueuing
system.mem_ctrls.avgWrQLen                       0.00                       # Average write queue length when enqueuing
system.mem_ctrls.totQLat                   1068068000                       # Total ticks spent queuing
system.mem_ctrls.totBusLat                  195840000                       # Total ticks spent in databus transfers
system.mem_ctrls.totMemAccLat              1802468000                       # Total ticks spent from burst creation until serviced by the DRAM
system.mem_ctrls.avgQLat                     27268.89                       # Average queueing delay per DRAM burst
system.mem_ctrls.avgBusLat                    5000.00                       # Average bus latency per DRAM burst
system.mem_ctrls.avgMemAccLat                46018.89                       # Average memory access latency per DRAM burst
system.mem_ctrls.numRdRetry                         0                       # Number of times read queue was full causing retry
system.mem_ctrls.numWrRetry                         0                       # Number of times write queue was full causing retry
system.mem_ctrls.readRowHits                    30045                       # Number of row buffer hits during reads
system.mem_ctrls.writeRowHits                       0                       # Number of row buffer hits during writes
system.mem_ctrls.readRowHitRate                 76.71                       # Row buffer hit rate for reads
system.mem_ctrls.writeRowHitRate                  nan                       # Row buffer hit rate for writes
system.mem_ctrls.readPktSize::0                     0                       # Read request sizes (log2)
system.mem_ctrls.readPktSize::1                     0                       # Read request sizes (log2)
system.mem_ctrls.readPktSize::2                     0                       # Read request sizes (log2)
system.mem_ctrls.readPktSize::3                     0                       # Read request sizes (log2)
system.mem_ctrls.readPktSize::4                     0                       # Read request sizes (log2)
system.mem_ctrls.readPktSize::5                     0                       # Read request sizes (log2)
system.mem_ctrls.readPktSize::6                 39168                       # Read request sizes (log2)
system.mem_ctrls.writePktSize::0                    0                       # Write request sizes (log2)
system.mem_ctrls.writePktSize::1                    0                       # Write request sizes (log2)
system.mem_ctrls.writePktSize::2                    0                       # Write request sizes (log2)
system.mem_ctrls.writePktSize::3                    0                       # Write request sizes (log2)
system.mem_ctrls.writePktSize::4                    0                       # Write request sizes (log2)
system.mem_ctrls.writePktSize::5                    0                       # Write request sizes (log2)
system.mem_ctrls.writePktSize::6                    0                       # Write request sizes (log2)
system.mem_ctrls.rdQLenPdf::0                    9763                       # What read queue length does an incoming req see
system.mem_ctrls.rdQLenPdf::1                    9763                       # What read queue length does an incoming req see
system.mem_ctrls.rdQLenPdf::2                    9763                       # What read queue length does an incoming req see
system.mem_ctrls.rdQLenPdf::3                    9766                       # What read queue length does an incoming req see
system.mem_ctrls.rdQLenPdf::4                      25                       # What read queue length does an incoming req see
system.mem_ctrls.rdQLenPdf::5                      25                       # What read queue length does an incoming req see
system.mem_ctrls.rdQLenPdf::6                      25                       # What read queue length does an incoming req see
system.mem_ctrls.rdQLenPdf::7                      24                       # What read queue length does an incoming req see
system.mem_ctrls.rdQLenPdf::8                       4                       # What read queue length does an incoming req see
system.mem_ctrls.rdQLenPdf::9                       4                       # What read queue length does an incoming req see
system.mem_ctrls.rdQLenPdf::10                      4                       # What read queue length does an incoming req see
system.mem_ctrls.rdQLenPdf::11                      2                       # What read queue length does an incoming req see
system.mem_ctrls.rdQLenPdf::12                      0                       # What read queue length does an incoming req see
system.mem_ctrls.rdQLenPdf::13                      0                       # What read queue length does an incoming req see
system.mem_ctrls.rdQLenPdf::14                      0                       # What read queue length does an incoming req see
system.mem_ctrls.rdQLenPdf::15                      0                       # What read queue length does an incoming req see
system.mem_ctrls.rdQLenPdf::16                      0                       # What read queue length does an incoming req see
system.mem_ctrls.rdQLenPdf::17                      0                       # What read queue length does an incoming req see
system.mem_ctrls.rdQLenPdf::18                      0                       # What read queue length does an incoming req see
system.mem_ctrls.rdQLenPdf::19                      0                       # What read queue length does an incoming req see
system.mem_ctrls.rdQLenPdf::20                      0                       # What read queue length does an incoming req see
system.mem_ctrls.rdQLenPdf::21                      0                       # What read queue length does an incoming req see
system.mem_ctrls.rdQLenPdf::22                      0                       # What read queue length does an incoming req see
system.mem_ctrls.rdQLenPdf::23                      0                       # What read queue length does an incoming req see
system.mem_ctrls.rdQLenPdf::24                      0                       # What read queue length does an incoming req see
system.mem_ctrls.rdQLenPdf::25                      0                       # What read queue length does an incoming req see
system.mem_ctrls.rdQLenPdf::26                      0                       # What read queue length does an incoming req see
system.mem_ctrls.rdQLenPdf::27                      0                       # What read queue length does an incoming req see
system.mem_ctrls.rdQLenPdf::28                      0                       # What read queue length does an incoming req see
system.mem_ctrls.rdQLenPdf::29                      0                       # What read queue length does an incoming req see
system.mem_ctrls.rdQLenPdf::30                      0                       # What read queue length does an incoming req see
system.mem_ctrls.rdQLenPdf::31                      0                       # What read queue length does an incoming req see
system.mem_ctrls.wrQLenPdf::0                       0                       # What write queue length does an incoming req see
system.mem_ctrls.wrQLenPdf::1                       0                       # What write queue length does an incoming req see
system.mem_ctrls.wrQLenPdf::2                       0                       # What write queue length does an incoming req see
system.mem_ctrls.wrQLenPdf::3                       0                       # What write queue length does an incoming req see
system.mem_ctrls.wrQLenPdf::4                       0                       # What write queue length does an incoming req see
system.mem_ctrls.wrQLenPdf::5                       0                       # What write queue length does an incoming req see
system.mem_ctrls.wrQLenPdf::6                       0                       # What write queue length does an incoming req see
system.mem_ctrls.wrQLenPdf::7                       0                       # What write queue length does an incoming req see
system.mem_ctrls.wrQLenPdf::8                       0                       # What write queue length does an incoming req see
system.mem_ctrls.wrQLenPdf::9                       0                       # What write queue length does an incoming req see
system.mem_ctrls.wrQLenPdf::10                      0                       # What write queue length does an incoming req see
system.mem_ctrls.wrQLenPdf::11                      0                       # What write queue length does an incoming req see
system.mem_ctrls.wrQLenPdf::12                      0                       # What write queue length does an incoming req see
system.mem_ctrls.wrQLenPdf::13                      0                       # What write queue length does an incoming req see
system.mem_ctrls.wrQLenPdf::14                      0                       # What write queue length does an incoming req see
system.mem_ctrls.wrQLenPdf::15                      0                       # What write queue length does an incoming req see
system.mem_ctrls.wrQLenPdf::16                      0                       # What write queue length does an incoming req see
system.mem_ctrls.wrQLenPdf::17                      0                       # What write queue length does an incoming req see
system.mem_ctrls.wrQLenPdf::18                      0                       # What write queue length does an incoming req see
system.mem_ctrls.wrQLenPdf::19                      0                       # What write queue length does an incoming req see
system.mem_ctrls.wrQLenPdf::20                      0                       # What write queue length does an incoming req see
system.mem_ctrls.wrQLenPdf::21                      0                       # What write queue length does an incoming req see
system.mem_ctrls.wrQLenPdf::22                      0                       # What write queue length does an incoming req see
system.mem_ctrls.wrQLenPdf::23                      0                       # What write queue length does an incoming req see
system.mem_ctrls.wrQLenPdf::24                      0                       # What write queue length does an incoming req see
system.mem_ctrls.wrQLenPdf::25                      0                       # What write queue length does an incoming req see
system.mem_ctrls.wrQLenPdf::26                      0                       # What write queue length does an incoming req see
system.mem_ctrls.wrQLenPdf::27                      0                       # What write queue length does an incoming req see
system.mem_ctrls.wrQLenPdf::28                      0                       # What write queue length does an incoming req see
system.mem_ctrls.wrQLenPdf::29                      0                       # What write queue length does an incoming req see
system.mem_ctrls.wrQLenPdf::30                      0                       # What write queue length does an incoming req see
system.mem_ctrls.wrQLenPdf::31                      0                       # What write queue length does an incoming req see
system.mem_ctrls.wrQLenPdf::32                      0                       # What write queue length does an incoming req see
system.mem_ctrls.wrQLenPdf::33                      0                       # What write queue length does an incoming req see
system.mem_ctrls.wrQLenPdf::34                      0                       # What write queue length does an incoming req see
system.mem_ctrls.wrQLenPdf::35                      0                       # What write queue length does an incoming req see
system.mem_ctrls.wrQLenPdf::36                      0                       # What write queue length does an incoming req see
system.mem_ctrls.wrQLenPdf::37                      0                       # What write queue length does an incoming req see
system.mem_ctrls.wrQLenPdf::38                      0                       # What write queue length does an incoming req see
system.mem_ctrls.wrQLenPdf::39                      0                       # What write queue length does an incoming req see
system.mem_ctrls.wrQLenPdf::40                      0                       # What write queue length does an incoming req see
system.mem_ctrls.wrQLenPdf::41                      0                       # What write queue length does an incoming req see
system.mem_ctrls.wrQLenPdf::42                      0                       # What write queue length does an incoming req see
system.mem_ctrls.wrQLenPdf::43                      0                       # What write queue length does an incoming req see
system.mem_ctrls.wrQLenPdf::44                      0                       # What write queue length does an incoming req see
system.mem_ctrls.wrQLenPdf::45                      0                       # What write queue length does an incoming req see
system.mem_ctrls.wrQLenPdf::46                      0                       # What write queue length does an incoming req see
system.mem_ctrls.wrQLenPdf::47                      0                       # What write queue length does an incoming req see
system.mem_ctrls.wrQLenPdf::48                      0                       # What write queue length does an incoming req see
system.mem_ctrls.wrQLenPdf::49                      0                       # What write queue length does an incoming req see
system.mem_ctrls.wrQLenPdf::50                      0                       # What write queue length does an incoming req see
system.mem_ctrls.wrQLenPdf::51                      0                       # What write queue length does an incoming req see
system.mem_ctrls.wrQLenPdf::52                      0                       # What write queue length does an incoming req see
system.mem_ctrls.wrQLenPdf::53                      0                       # What write queue length does an incoming req see
system.mem_ctrls.wrQLenPdf::54                      0                       # What write queue length does an incoming req see
system.mem_ctrls.wrQLenPdf::55                      0                       # What write queue length does an incoming req see
system.mem_ctrls.wrQLenPdf::56                      0                       # What write queue length does an incoming req see
system.mem_ctrls.wrQLenPdf::57                      0                       # What write queue length does an incoming req see
system.mem_ctrls.wrQLenPdf::58                      0                       # What write queue length does an incoming req see
system.mem_ctrls.wrQLenPdf::59                      0                       # What write queue length does an incoming req see
system.mem_ctrls.wrQLenPdf::60                      0                       # What write queue length does an incoming req see
system.mem_ctrls.wrQLenPdf::61                      0                       # What write queue length does an incoming req see
system.mem_ctrls.wrQLenPdf::62                      0                       # What write queue length does an incoming req see
system.mem_ctrls.wrQLenPdf::63                      0                       # What write queue length does an incoming req see
system.mem_ctrls.bytesPerActivate::samples         9123                       # Bytes accessed per row activation
system.mem_ctrls.bytesPerActivate::mean    274.772772                       # Bytes accessed per row activation
system.mem_ctrls.bytesPerActivate::gmean   268.317789                       # Bytes accessed per row activation
system.mem_ctrls.bytesPerActivate::stdev    80.397350                       # Bytes accessed per row activation
system.mem_ctrls.bytesPerActivate::0-127            2      0.02%      0.02% # Bytes accessed per row activation
system.mem_ctrls.bytesPerActivate::128-255            3      0.03%      0.05% # Bytes accessed per row activation
system.mem_ctrls.bytesPerActivate::256-383         8543     93.64%     93.70% # Bytes accessed per row activation
system.mem_ctrls.bytesPerActivate::384-511            1      0.01%     93.71% # Bytes accessed per row activation
system.mem_ctrls.bytesPerActivate::512-639          518      5.68%     99.39% # Bytes accessed per row activation
system.mem_ctrls.bytesPerActivate::768-895           15      0.16%     99.55% # Bytes accessed per row activation
system.mem_ctrls.bytesPerActivate::1024-1151           41      0.45%    100.00% # Bytes accessed per row activation
system.mem_ctrls.bytesPerActivate::total         9123                       # Bytes accessed per row activation
system.mem_ctrls.bytesReadDRAM                2506752                       # Total number of bytes read from DRAM
system.mem_ctrls.bytesReadWrQ                       0                       # Total number of bytes read from write queue
system.mem_ctrls.bytesWritten                       0                       # Total number of bytes written to DRAM
system.mem_ctrls.bytesReadSys                 2506752                       # Total read bytes from the system interface side
system.mem_ctrls.bytesWrittenSys                    0                       # Total written bytes from the system interface side
system.mem_ctrls.avgRdBW                        23.50                       # Average DRAM read bandwidth in MiByte/s
system.mem_ctrls.avgWrBW                         0.00                       # Average achieved write bandwidth in MiByte/s
system.mem_ctrls.avgRdBWSys                     23.50                       # Average system read bandwidth in MiByte/s
system.mem_ctrls.avgWrBWSys                      0.00                       # Average system write bandwidth in MiByte/s
system.mem_ctrls.peakBW                      12800.00                       # Theoretical peak bandwidth in MiByte/s
system.mem_ctrls.busUtil                         0.18                       # Data bus utilization in percentage
system.mem_ctrls.busUtilRead                     0.18                       # Data bus utilization in percentage for reads
system.mem_ctrls.busUtilWrite                    0.00                       # Data bus utilization in percentage for writes
system.mem_ctrls.totGap                  106634559000                       # Total gap between requests
system.mem_ctrls.avgGap                   10889967.22                       # Average gap between requests
system.mem_ctrls.masterReadBytes::.cpu.inst        58112                       # Per-master bytes read from memory
system.mem_ctrls.masterReadBytes::.cpu.data      2448640                       # Per-master bytes read from memory
system.mem_ctrls.masterReadRate::.cpu.inst 544874.297015862423                       # Per-master bytes read from memory rate (Bytes/sec)
system.mem_ctrls.masterReadRate::.cpu.data 22959130.620954733342                       # Per-master bytes read from memory rate (Bytes/sec)
system.mem_ctrls.masterReadAccesses::.cpu.inst          908                       # Per-master read serviced memory accesses
system.mem_ctrls.masterReadAccesses::.cpu.data        38260                       # Per-master read serviced memory accesses
system.mem_ctrls.masterReadTotalLat::.cpu.inst     33274000                       # Per-master read total memory access latency
system.mem_ctrls.masterReadTotalLat::.cpu.data   1769194000                       # Per-master read total memory access latency
system.mem_ctrls.masterReadAvgLat::.cpu.inst     36645.37                       # Per-master read average memory access latency
system.mem_ctrls.masterReadAvgLat::.cpu.data     46241.35                       # Per-master read average memory access latency
system.mem_ctrls.pageHitRate                    76.71                       # Row buffer hit rate, read and write combined
system.mem_ctrls.rank1.actEnergy             31737300                       # Energy for activate commands per rank (pJ)
system.mem_ctrls.rank1.preEnergy             16868775                       # Energy for precharge commands per rank (pJ)
system.mem_ctrls.rank1.readEnergy           135945600                       # Energy for read commands per rank (pJ)
[...]
system.cpu.icache.ReadReq_mshr_misses::.cpu.inst          445                       # number of ReadReq MSHR misses
system.cpu.icache.ReadReq_mshr_misses::total          445                       # number of ReadReq MSHR misses
system.cpu.icache.ReadReq_mshr_miss_latency::.cpu.inst     32236000                       # number of ReadReq MSHR miss cycles
system.cpu.icache.ReadReq_mshr_miss_latency::total     32236000                       # number of ReadReq MSHR miss cycles
system.cpu.icache.ReadReq_mshr_miss_rate::.cpu.inst     0.000018                       # mshr miss rate for ReadReq accesses
system.cpu.icache.ReadReq_mshr_miss_rate::total     0.000018                       # mshr miss rate for ReadReq accesses
system.cpu.icache.ReadReq_avg_mshr_miss_latency::.cpu.inst 72440.449438                       # average ReadReq mshr miss latency
system.cpu.icache.ReadReq_avg_mshr_miss_latency::total 72440.449438                       # average ReadReq mshr miss latency
system.cpu.icache.tags.pwrStateResidencyTicks::UNDEFINED 106652122000                       # Cumulative time (in ticks) in various power states
system.cpu.icache.tags.tagsinuse           198.957215                       # Cycle average of tags in use
system.cpu.icache.tags.total_refs            25073450                       # Total number of references to valid blocks.
system.cpu.icache.tags.sampled_refs               445                       # Sample count of references to valid blocks.
system.cpu.icache.tags.avg_refs          56344.831461                       # Average number of references to valid blocks.
system.cpu.icache.tags.warmup_cycle            123000                       # Cycle when the warmup percentage was hit.
system.cpu.icache.tags.occ_blocks::.cpu.inst   198.957215                       # Average occupied blocks per requestor
system.cpu.icache.tags.occ_percent::.cpu.inst     0.777177                       # Average percentage of cache occupancy
system.cpu.icache.tags.occ_percent::total     0.777177                       # Average percentage of cache occupancy
system.cpu.icache.tags.occ_task_id_blocks::1024          199                       # Occupied blocks per task id
system.cpu.icache.tags.age_task_id_blocks_1024::1            2                       # Occupied blocks per task id
system.cpu.icache.tags.age_task_id_blocks_1024::4          197                       # Occupied blocks per task id
system.cpu.icache.tags.occ_task_id_percent::1024     0.777344                       # Percentage of cache occupancy per task id
system.cpu.icache.tags.tag_accesses         100294245                       # Number of tag accesses
system.cpu.icache.tags.data_accesses        100294245                       # Number of data accesses
system.cpu.dtb.walker.pwrStateResidencyTicks::UNDEFINED 106652122000                       # Cumulative time (in ticks) in various power states
system.cpu.dtb.stage2_mmu.stage2_tlb.walker.pwrStateResidencyTicks::UNDEFINED 106652122000                       # Cumulative time (in ticks) in various power states
system.cpu.dcache.pwrStateResidencyTicks::UNDEFINED 106652122000                       # Cumulative time (in ticks) in various power states
system.cpu.dcache.demand_hits::.cpu.data     34602318                       # number of demand (read+write) hits
system.cpu.dcache.demand_hits::total         34602318                       # number of demand (read+write) hits
system.cpu.dcache.overall_hits::.cpu.data     34605423                       # number of overall hits
system.cpu.dcache.overall_hits::total        34605423                       # number of overall hits
system.cpu.dcache.demand_misses::.cpu.data        23863                       # number of demand (read+write) misses
system.cpu.dcache.demand_misses::total          23863                       # number of demand (read+write) misses
system.cpu.dcache.overall_misses::.cpu.data        23887                       # number of overall misses
system.cpu.dcache.overall_misses::total         23887                       # number of overall misses
system.cpu.dcache.demand_miss_latency::.cpu.data   1945349000                       # number of demand (read+write) miss cycles
system.cpu.dcache.demand_miss_latency::total   1945349000                       # number of demand (read+write) miss cycles
system.cpu.dcache.overall_miss_latency::.cpu.data   1945349000                       # number of overall miss cycles
system.cpu.dcache.overall_miss_latency::total   1945349000                       # number of overall miss cycles
system.cpu.dcache.demand_accesses::.cpu.data     34626181                       # number of demand (read+write) accesses
system.cpu.dcache.demand_accesses::total     34626181                       # number of demand (read+write) accesses
system.cpu.dcache.overall_accesses::.cpu.data     34629310                       # number of overall (read+write) accesses
system.cpu.dcache.overall_accesses::total     34629310                       # number of overall (read+write) accesses
system.cpu.dcache.demand_miss_rate::.cpu.data     0.000689                       # miss rate for demand accesses
system.cpu.dcache.demand_miss_rate::total     0.000689                       # miss rate for demand accesses
system.cpu.dcache.overall_miss_rate::.cpu.data     0.000690                       # miss rate for overall accesses
system.cpu.dcache.overall_miss_rate::total     0.000690                       # miss rate for overall accesses
system.cpu.dcache.demand_avg_miss_latency::.cpu.data 81521.560575                       # average overall miss latency
system.cpu.dcache.demand_avg_miss_latency::total 81521.560575                       # average overall miss latency
system.cpu.dcache.overall_avg_miss_latency::.cpu.data 81439.653368                       # average overall miss latency
system.cpu.dcache.overall_avg_miss_latency::total 81439.653368                       # average overall miss latency
system.cpu.dcache.blocked_cycles::no_mshrs            0                       # number of cycles access was blocked
system.cpu.dcache.blocked_cycles::no_targets            0                       # number of cycles access was blocked
system.cpu.dcache.blocked::no_mshrs                 0                       # number of cycles access was blocked
system.cpu.dcache.blocked::no_targets               0                       # number of cycles access was blocked
system.cpu.dcache.avg_blocked_cycles::no_mshrs          nan                       # average number of cycles each access was blocked
system.cpu.dcache.avg_blocked_cycles::no_targets          nan                       # average number of cycles each access was blocked
system.cpu.dcache.writebacks::.writebacks        18480                       # number of writebacks
system.cpu.dcache.writebacks::total             18480                       # number of writebacks
system.cpu.dcache.demand_mshr_hits::.cpu.data         4488                       # number of demand (read+write) MSHR hits
system.cpu.dcache.demand_mshr_hits::total         4488                       # number of demand (read+write) MSHR hits
system.cpu.dcache.overall_mshr_hits::.cpu.data         4488                       # number of overall MSHR hits
system.cpu.dcache.overall_mshr_hits::total         4488                       # number of overall MSHR hits
system.cpu.dcache.demand_mshr_misses::.cpu.data        19375                       # number of demand (read+write) MSHR misses
system.cpu.dcache.demand_mshr_misses::total        19375                       # number of demand (read+write) MSHR misses
system.cpu.dcache.overall_mshr_misses::.cpu.data        19387                       # number of overall MSHR misses
system.cpu.dcache.overall_mshr_misses::total        19387                       # number of overall MSHR misses
system.cpu.dcache.demand_mshr_miss_latency::.cpu.data   1462250000                       # number of demand (read+write) MSHR miss cycles
system.cpu.dcache.demand_mshr_miss_latency::total   1462250000                       # number of demand (read+write) MSHR miss cycles
system.cpu.dcache.overall_mshr_miss_latency::.cpu.data   1463105000                       # number of overall MSHR miss cycles
system.cpu.dcache.overall_mshr_miss_latency::total   1463105000                       # number of overall MSHR miss cycles
system.cpu.dcache.demand_mshr_miss_rate::.cpu.data     0.000560                       # mshr miss rate for demand accesses
system.cpu.dcache.demand_mshr_miss_rate::total     0.000560                       # mshr miss rate for demand accesses
system.cpu.dcache.overall_mshr_miss_rate::.cpu.data     0.000560                       # mshr miss rate for overall accesses
system.cpu.dcache.overall_mshr_miss_rate::total     0.000560                       # mshr miss rate for overall accesses
system.cpu.dcache.demand_avg_mshr_miss_latency::.cpu.data 75470.967742                       # average overall mshr miss latency
system.cpu.dcache.demand_avg_mshr_miss_latency::total 75470.967742                       # average overall mshr miss latency
system.cpu.dcache.overall_avg_mshr_miss_latency::.cpu.data 75468.355083                       # average overall mshr miss latency
system.cpu.dcache.overall_avg_mshr_miss_latency::total 75468.355083                       # average overall mshr miss latency
system.cpu.dcache.replacements                  18875                       # number of replacements
system.cpu.dcache.ReadReq_hits::.cpu.data     20434552                       # number of ReadReq hits
system.cpu.dcache.ReadReq_hits::total        20434552                       # number of ReadReq hits
system.cpu.dcache.ReadReq_misses::.cpu.data        10236                       # number of ReadReq misses
system.cpu.dcache.ReadReq_misses::total         10236                       # number of ReadReq misses
system.cpu.dcache.ReadReq_miss_latency::.cpu.data    278613000                       # number of ReadReq miss cycles
system.cpu.dcache.ReadReq_miss_latency::total    278613000                       # number of ReadReq miss cycles
system.cpu.dcache.ReadReq_accesses::.cpu.data     20444788                       # number of ReadReq accesses(hits+misses)
system.cpu.dcache.ReadReq_accesses::total     20444788                       # number of ReadReq accesses(hits+misses)
system.cpu.dcache.ReadReq_miss_rate::.cpu.data     0.000501                       # miss rate for ReadReq accesses
system.cpu.dcache.ReadReq_miss_rate::total     0.000501                       # miss rate for ReadReq accesses
system.cpu.dcache.ReadReq_avg_miss_latency::.cpu.data 27218.933177                       # average ReadReq miss latency
system.cpu.dcache.ReadReq_avg_miss_latency::total 27218.933177                       # average ReadReq miss latency
system.cpu.dcache.ReadReq_mshr_hits::.cpu.data          357                       # number of ReadReq MSHR hits
system.cpu.dcache.ReadReq_mshr_hits::total          357                       # number of ReadReq MSHR hits
system.cpu.dcache.ReadReq_mshr_misses::.cpu.data         9879                       # number of ReadReq MSHR misses
system.cpu.dcache.ReadReq_mshr_misses::total         9879                       # number of ReadReq MSHR misses
system.cpu.dcache.ReadReq_mshr_miss_latency::.cpu.data    243615000                       # number of ReadReq MSHR miss cycles
system.cpu.dcache.ReadReq_mshr_miss_latency::total    243615000                       # number of ReadReq MSHR miss cycles
system.cpu.dcache.ReadReq_mshr_miss_rate::.cpu.data     0.000483                       # mshr miss rate for ReadReq accesses
system.cpu.dcache.ReadReq_mshr_miss_rate::total     0.000483                       # mshr miss rate for ReadReq accesses
system.cpu.dcache.ReadReq_avg_mshr_miss_latency::.cpu.data 24659.884604                       # average ReadReq mshr miss latency
system.cpu.dcache.ReadReq_avg_mshr_miss_latency::total 24659.884604                       # average ReadReq mshr miss latency
system.cpu.dcache.WriteReq_hits::.cpu.data     14167766                       # number of WriteReq hits
system.cpu.dcache.WriteReq_hits::total       14167766                       # number of WriteReq hits
system.cpu.dcache.WriteReq_misses::.cpu.data        13627                       # number of WriteReq misses
system.cpu.dcache.WriteReq_misses::total        13627                       # number of WriteReq misses
system.cpu.dcache.WriteReq_miss_latency::.cpu.data   1666736000                       # number of WriteReq miss cycles
system.cpu.dcache.WriteReq_miss_latency::total   1666736000                       # number of WriteReq miss cycles
system.cpu.dcache.WriteReq_accesses::.cpu.data     14181393                       # number of WriteReq accesses(hits+misses)
system.cpu.dcache.WriteReq_accesses::total     14181393                       # number of WriteReq accesses(hits+misses)
system.cpu.dcache.WriteReq_miss_rate::.cpu.data     0.000961                       # miss rate for WriteReq accesses
system.cpu.dcache.WriteReq_miss_rate::total     0.000961                       # miss rate for WriteReq accesses
system.cpu.dcache.WriteReq_avg_miss_latency::.cpu.data 122311.293755                       # average WriteReq miss latency
system.cpu.dcache.WriteReq_avg_miss_latency::total 122311.293755                       # average WriteReq miss latency
system.cpu.dcache.WriteReq_mshr_hits::.cpu.data         4131                       # number of WriteReq MSHR hits
system.cpu.dcache.WriteReq_mshr_hits::total         4131                       # number of WriteReq MSHR hits
system.cpu.dcache.WriteReq_mshr_misses::.cpu.data         9496                       # number of WriteReq MSHR misses
system.cpu.dcache.WriteReq_mshr_misses::total         9496                       # number of WriteReq MSHR misses
system.cpu.dcache.WriteReq_mshr_miss_latency::.cpu.data   1218635000                       # number of WriteReq MSHR miss cycles
system.cpu.dcache.WriteReq_mshr_miss_latency::total   1218635000                       # number of WriteReq MSHR miss cycles
system.cpu.dcache.WriteReq_mshr_miss_rate::.cpu.data     0.000670                       # mshr miss rate for WriteReq accesses
system.cpu.dcache.WriteReq_mshr_miss_rate::total     0.000670                       # mshr miss rate for WriteReq accesses
system.cpu.dcache.WriteReq_avg_mshr_miss_latency::.cpu.data 128331.402696                       # average WriteReq mshr miss latency
system.cpu.dcache.WriteReq_avg_mshr_miss_latency::total 128331.402696                       # average WriteReq mshr miss latency
system.cpu.dcache.SoftPFReq_hits::.cpu.data         3105                       # number of SoftPFReq hits
system.cpu.dcache.SoftPFReq_hits::total          3105                       # number of SoftPFReq hits
system.cpu.dcache.SoftPFReq_misses::.cpu.data           24                       # number of SoftPFReq misses
system.cpu.dcache.SoftPFReq_misses::total           24                       # number of SoftPFReq misses
system.cpu.dcache.SoftPFReq_accesses::.cpu.data         3129                       # number of SoftPFReq accesses(hits+misses)
system.cpu.dcache.SoftPFReq_accesses::total         3129                       # number of SoftPFReq accesses(hits+misses)
system.cpu.dcache.SoftPFReq_miss_rate::.cpu.data     0.007670                       # miss rate for SoftPFReq accesses
system.cpu.dcache.SoftPFReq_miss_rate::total     0.007670                       # miss rate for SoftPFReq accesses
system.cpu.dcache.SoftPFReq_mshr_misses::.cpu.data           12                       # number of SoftPFReq MSHR misses
system.cpu.dcache.SoftPFReq_mshr_misses::total           12                       # number of SoftPFReq MSHR misses
system.cpu.dcache.SoftPFReq_mshr_miss_latency::.cpu.data       855000                       # number of SoftPFReq MSHR miss cycles
system.cpu.dcache.SoftPFReq_mshr_miss_latency::total       855000                       # number of SoftPFReq MSHR miss cycles
system.cpu.dcache.SoftPFReq_mshr_miss_rate::.cpu.data     0.003835                       # mshr miss rate for SoftPFReq accesses
system.cpu.dcache.SoftPFReq_mshr_miss_rate::total     0.003835                       # mshr miss rate for SoftPFReq accesses
system.cpu.dcache.SoftPFReq_avg_mshr_miss_latency::.cpu.data        71250                       # average SoftPFReq mshr miss latency
system.cpu.dcache.SoftPFReq_avg_mshr_miss_latency::total        71250                       # average SoftPFReq mshr miss latency
system.cpu.dcache.LoadLockedReq_hits::.cpu.data        85610                       # number of LoadLockedReq hits
system.cpu.dcache.LoadLockedReq_hits::total        85610                       # number of LoadLockedReq hits
system.cpu.dcache.LoadLockedReq_accesses::.cpu.data        85610                       # number of LoadLockedReq accesses(hits+misses)
system.cpu.dcache.LoadLockedReq_accesses::total        85610                       # number of LoadLockedReq accesses(hits+misses)
system.cpu.dcache.StoreCondReq_hits::.cpu.data        85610                       # number of StoreCondReq hits
system.cpu.dcache.StoreCondReq_hits::total        85610                       # number of StoreCondReq hits
system.cpu.dcache.StoreCondReq_accesses::.cpu.data        85610                       # number of StoreCondReq accesses(hits+misses)
system.cpu.dcache.StoreCondReq_accesses::total        85610                       # number of StoreCondReq accesses(hits+misses)
system.cpu.dcache.tags.pwrStateResidencyTicks::UNDEFINED 106652122000                       # Cumulative time (in ticks) in various power states
system.cpu.dcache.tags.tagsinuse           509.578121                       # Cycle average of tags in use
system.cpu.dcache.tags.total_refs            34796030                       # Total number of references to valid blocks.
system.cpu.dcache.tags.sampled_refs             19387                       # Sample count of references to valid blocks.
system.cpu.dcache.tags.avg_refs           1794.812503                       # Average number of references to valid blocks.
system.cpu.dcache.tags.warmup_cycle            258000                       # Cycle when the warmup percentage was hit.
system.cpu.dcache.tags.occ_blocks::.cpu.data   509.578121                       # Average occupied blocks per requestor
system.cpu.dcache.tags.occ_percent::.cpu.data     0.995270                       # Average percentage of cache occupancy
system.cpu.dcache.tags.occ_percent::total     0.995270                       # Average percentage of cache occupancy
system.cpu.dcache.tags.occ_task_id_blocks::1024          512                       # Occupied blocks per task id
system.cpu.dcache.tags.age_task_id_blocks_1024::0            1                       # Occupied blocks per task id
system.cpu.dcache.tags.age_task_id_blocks_1024::1            8                       # Occupied blocks per task id
system.cpu.dcache.tags.age_task_id_blocks_1024::2           90                       # Occupied blocks per task id
system.cpu.dcache.tags.age_task_id_blocks_1024::3          372                       # Occupied blocks per task id
system.cpu.dcache.tags.age_task_id_blocks_1024::4           41                       # Occupied blocks per task id
system.cpu.dcache.tags.occ_task_id_percent::1024            1                       # Percentage of cache occupancy per task id
system.cpu.dcache.tags.tag_accesses         556827867                       # Number of tag accesses
system.cpu.dcache.tags.data_accesses        556827867                       # Number of data accesses
system.cpu.itb.walker.pwrStateResidencyTicks::UNDEFINED 106652122000                       # Cumulative time (in ticks) in various power states
system.cpu.itb.stage2_mmu.stage2_tlb.walker.pwrStateResidencyTicks::UNDEFINED 106652122000                       # Cumulative time (in ticks) in various power states

---------- End Simulation Statistics   ----------
