
---------- Begin Simulation Statistics ----------
final_tick                               156840382000                       # Number of ticks from beginning of simulation (restored from checkpoints and never reset)
host_inst_rate                                 347764                       # Simulator instruction rate (inst/s)
host_mem_usage                                 718252                       # Number of bytes of host memory used
host_op_rate                                   348458                       # Simulator op (including micro ops) rate (op/s)
host_seconds                                   287.55                       # Real time elapsed on the host
host_tick_rate                              545434772                       # Simulator tick rate (ticks/s)
sim_freq                                 1000000000000                       # Frequency of simulated ticks
sim_insts                                   100000001                       # Number of instructions simulated
sim_ops                                     100199569                       # Number of ops (including micro ops) simulated
sim_seconds                                  0.156840                       # Number of seconds simulated
sim_ticks                                156840382000                       # Number of ticks simulated
system.cpu.branchPred.BTBCorrect                    0                       # Number of correct BTB predictions (this stat may not work properly.
system.cpu.branchPred.BTBHitPct             99.568327                       # BTB Hit Percentage
system.cpu.branchPred.BTBHits                 2104051                       # Number of BTB hits
system.cpu.branchPred.BTBLookups              2113173                       # Number of BTB lookups
system.cpu.branchPred.RASInCorrect                  6                       # Number of incorrect RAS predictions.
system.cpu.branchPred.condIncorrect             83520                       # Number of conditional branches incorrect
system.cpu.branchPred.condPredicted           3635498                       # Number of conditional branches predicted
system.cpu.branchPred.indirectHits                297                       # Number of indirect target hits.
system.cpu.branchPred.indirectLookups             793                       # Number of indirect predictor lookups.
system.cpu.branchPred.indirectMisses              496                       # Number of indirect misses.
system.cpu.branchPred.lookups                 4389771                       # Number of BP lookups
system.cpu.branchPred.usedRAS                   66028                       # Number of times the RAS was used to get a target.
system.cpu.branchPredindirectMispredicted          168                       # Number of mispredicted indirect branches.
system.cpu.committedInsts                   100000001                       # Number of instructions committed
system.cpu.committedOps                     100199569                       # Number of ops (including micro ops) committed
system.cpu.cpi                               1.568404                       # CPI: cycles per instruction
system.cpu.discardedOps                        196840                       # Number of ops (including micro ops) which were discarded before commit
system.cpu.dtb.accesses                             0                       # DTB accesses
system.cpu.dtb.align_faults                         0                       # Number of TLB faults due to alignment restrictions
system.cpu.dtb.domain_faults                        0                       # Number of TLB faults due to domain restrictions
system.cpu.dtb.flush_entries                        0                       # Number of entries that have been flushed from TLB
system.cpu.dtb.flush_tlb                            0                       # Number of times complete TLB was flushed
system.cpu.dtb.flush_tlb_asid                       0                       # Number of times TLB was flushed by ASID
system.cpu.dtb.flush_tlb_mva                        0                       # Number of times TLB was flushed by MVA
system.cpu.dtb.flush_tlb_mva_asid                   0                       # Number of times TLB was flushed by MVA & ASID
system.cpu.dtb.hits                                 0                       # DTB hits
system.cpu.dtb.inst_accesses                        0                       # ITB inst accesses
system.cpu.dtb.inst_hits                            0                       # ITB inst hits
system.cpu.dtb.inst_misses                          0                       # ITB inst misses
system.cpu.dtb.misses                               0                       # DTB misses
system.cpu.dtb.perms_faults                         0                       # Number of TLB faults due to permissions restrictions
system.cpu.dtb.prefetch_faults                      0                       # Number of TLB faults due to prefetch
system.cpu.dtb.read_accesses                        0                       # DTB read accesses
system.cpu.dtb.read_hits                            0                       # DTB read hits
system.cpu.dtb.read_misses                          0                       # DTB read misses
system.cpu.dtb.stage2_mmu.stage2_tlb.accesses            0                       # DTB accesses
system.cpu.dtb.stage2_mmu.stage2_tlb.align_faults            0                       # Number of TLB faults due to alignment restrictions
system.cpu.dtb.stage2_mmu.stage2_tlb.domain_faults            0                       # Number of TLB faults due to domain restrictions
system.cpu.dtb.stage2_mmu.stage2_tlb.flush_entries            0                       # Number of entries that have been flushed from TLB
system.cpu.dtb.stage2_mmu.stage2_tlb.flush_tlb            0                       # Number of times complete TLB was flushed
system.cpu.dtb.stage2_mmu.stage2_tlb.flush_tlb_asid            0                       # Number of times TLB was flushed by ASID
system.cpu.dtb.stage2_mmu.stage2_tlb.flush_tlb_mva            0                       # Number of times TLB was flushed by MVA
system.cpu.dtb.stage2_mmu.stage2_tlb.flush_tlb_mva_asid            0                       # Number of times TLB was flushed by MVA & ASID
system.cpu.dtb.stage2_mmu.stage2_tlb.hits            0                       # DTB hits
system.cpu.dtb.stage2_mmu.stage2_tlb.inst_accesses            0                       # ITB inst accesses
system.cpu.dtb.stage2_mmu.stage2_tlb.inst_hits            0                       # ITB inst hits
system.cpu.dtb.stage2_mmu.stage2_tlb.inst_misses            0                       # ITB inst misses
system.cpu.dtb.stage2_mmu.stage2_tlb.misses            0                       # DTB misses
system.cpu.dtb.stage2_mmu.stage2_tlb.perms_faults            0                       # Number of TLB faults due to permissions restrictions
system.cpu.dtb.stage2_mmu.stage2_tlb.prefetch_faults            0                       # Number of TLB faults due to prefetch
system.cpu.dtb.stage2_mmu.stage2_tlb.read_accesses            0                       # DTB read accesses
system.cpu.dtb.stage2_mmu.stage2_tlb.read_hits            0                       # DTB read hits
system.cpu.dtb.stage2_mmu.stage2_tlb.read_misses            0                       # DTB read misses
system.cpu.dtb.stage2_mmu.stage2_tlb.walker.walkRequestOrigin_Requested::Data            0                       # Table walker requests started/completed, data/inst
system.cpu.dtb.stage2_mmu.stage2_tlb.walker.walkRequestOrigin_Requested::Inst            0                       # Table walker requests started/completed, data/inst
system.cpu.dtb.stage2_mmu.stage2_tlb.walker.walkRequestOrigin_Requested::total            0                       # Table walker requests started/completed, data/inst
system.cpu.dtb.stage2_mmu.stage2_tlb.walker.walkRequestOrigin_Completed::Data            0                       # Table walker requests started/completed, data/inst
system.cpu.dtb.stage2_mmu.stage2_tlb.walker.walkRequestOrigin_Completed::Inst            0                       # Table walker requests started/completed, data/inst
system.cpu.dtb.stage2_mmu.stage2_tlb.walker.walkRequestOrigin_Completed::total            0                       # Table walker requests started/completed, data/inst
system.cpu.dtb.stage2_mmu.stage2_tlb.walker.walkRequestOrigin::total            0                       # Table walker requests started/completed, data/inst
system.cpu.dtb.stage2_mmu.stage2_tlb.walker.walks            0                       # Table walker walks requested
system.cpu.dtb.stage2_mmu.stage2_tlb.write_accesses            0                       # DTB write accesses
system.cpu.dtb.stage2_mmu.stage2_tlb.write_hits            0                       # DTB write hits
system.cpu.dtb.stage2_mmu.stage2_tlb.write_misses            0                       # DTB write misses
system.cpu.dtb.walker.walkRequestOrigin_Requested::Data            0                       # Table walker requests started/completed, data/inst
system.cpu.dtb.walker.walkRequestOrigin_Requested::Inst            0                       # Table walker requests started/completed, data/inst
system.cpu.dtb.walker.walkRequestOrigin_Requested::total            0                       # Table walker requests started/completed, data/inst
system.cpu.dtb.walker.walkRequestOrigin_Completed::Data            0                       # Table walker requests started/completed, data/inst
system.cpu.dtb.walker.walkRequestOrigin_Completed::Inst            0                       # Table walker requests started/completed, data/inst
system.cpu.dtb.walker.walkRequestOrigin_Completed::total            0                       # Table walker requests started/completed, data/inst
system.cpu.dtb.walker.walkRequestOrigin::total            0                       # Table walker requests started/completed, data/inst
system.cpu.dtb.walker.walks                         0                       # Table walker walks requested
system.cpu.dtb.write_accesses                       0                       # DTB write accesses
system.cpu.dtb.write_hits                           0                       # DTB write hits
system.cpu.dtb.write_misses                         0                       # DTB write misses
system.cpu.fetch2.amo_instructions                  0                       # Number of memory atomic instructions successfully decoded
system.cpu.fetch2.fp_instructions                   0                       # Number of floating point instructions successfully decoded
system.cpu.fetch2.int_instructions           42627916                       # Number of integer instructions successfully decoded
system.cpu.fetch2.load_instructions          43484987                       # Number of memory load instructions successfully decoded
system.cpu.fetch2.store_instructions         11033411                       # Number of memory store instructions successfully decoded
system.cpu.fetch2.vec_instructions                  0                       # Number of SIMD instructions successfully decoded
system.cpu.idleCycles                        24332433                       # Total number of cycles that the object has spent stopped
system.cpu.ipc                               0.637591                       # IPC: instructions per cycle
system.cpu.itb.accesses                             0                       # DTB accesses
system.cpu.itb.align_faults                         0                       # Number of TLB faults due to alignment restrictions
system.cpu.itb.domain_faults                        0                       # Number of TLB faults due to domain restrictions
system.cpu.itb.flush_entries                        0                       # Number of entries that have been flushed from TLB
system.cpu.itb.flush_tlb                            0                       # Number of times complete TLB was flushed
system.cpu.itb.flush_tlb_asid                       0                       # Number of times TLB was flushed by ASID
system.cpu.itb.flush_tlb_mva                        0                       # Number of times TLB was flushed by MVA
system.cpu.itb.flush_tlb_mva_asid                   0                       # Number of times TLB was flushed by MVA & ASID
system.cpu.itb.hits                                 0                       # DTB hits
system.cpu.itb.inst_accesses                        0                       # ITB inst accesses
system.cpu.itb.inst_hits                            0                       # ITB inst hits
system.cpu.itb.inst_misses                          0                       # ITB inst misses
system.cpu.itb.misses                               0                       # DTB misses
system.cpu.itb.perms_faults                         0                       # Number of TLB faults due to permissions restrictions
system.cpu.itb.prefetch_faults                      0                       # Number of TLB faults due to prefetch
system.cpu.itb.read_accesses                        0                       # DTB read accesses
system.cpu.itb.read_hits                            0                       # DTB read hits
system.cpu.itb.read_misses                          0                       # DTB read misses
system.cpu.itb.stage2_mmu.stage2_tlb.accesses            0                       # DTB accesses
system.cpu.itb.stage2_mmu.stage2_tlb.align_faults            0                       # Number of TLB faults due to alignment restrictions
system.cpu.itb.stage2_mmu.stage2_tlb.domain_faults            0                       # Number of TLB faults due to domain restrictions
system.cpu.itb.stage2_mmu.stage2_tlb.flush_entries            0                       # Number of entries that have been flushed from TLB
system.cpu.itb.stage2_mmu.stage2_tlb.flush_tlb            0                       # Number of times complete TLB was flushed
system.cpu.itb.stage2_mmu.stage2_tlb.flush_tlb_asid            0                       # Number of times TLB was flushed by ASID
system.cpu.itb.stage2_mmu.stage2_tlb.flush_tlb_mva            0                       # Number of times TLB was flushed by MVA
system.cpu.itb.stage2_mmu.stage2_tlb.flush_tlb_mva_asid            0                       # Number of times TLB was flushed by MVA & ASID
system.cpu.itb.stage2_mmu.stage2_tlb.hits            0                       # DTB hits
system.cpu.itb.stage2_mmu.stage2_tlb.inst_accesses            0                       # ITB inst accesses
system.cpu.itb.stage2_mmu.stage2_tlb.inst_hits            0                       # ITB inst hits
system.cpu.itb.stage2_mmu.stage2_tlb.inst_misses            0                       # ITB inst misses
system.cpu.itb.stage2_mmu.stage2_tlb.misses            0                       # DTB misses
system.cpu.itb.stage2_mmu.stage2_tlb.perms_faults            0                       # Number of TLB faults due to permissions restrictions
system.cpu.itb.stage2_mmu.stage2_tlb.prefetch_faults            0                       # Number of TLB faults due to prefetch
system.cpu.itb.stage2_mmu.stage2_tlb.read_accesses            0                       # DTB read accesses
system.cpu.itb.stage2_mmu.stage2_tlb.read_hits            0                       # DTB read hits
system.cpu.itb.stage2_mmu.stage2_tlb.read_misses            0                       # DTB read misses
system.cpu.itb.stage2_mmu.stage2_tlb.walker.walkRequestOrigin_Requested::Data            0                       # Table walker requests started/completed, data/inst
system.cpu.itb.stage2_mmu.stage2_tlb.walker.walkRequestOrigin_Requested::Inst            0                       # Table walker requests started/completed, data/inst
system.cpu.itb.stage2_mmu.stage2_tlb.walker.walkRequestOrigin_Requested::total            0                       # Table walker requests started/completed, data/inst
system.cpu.itb.stage2_mmu.stage2_tlb.walker.walkRequestOrigin_Completed::Data            0                       # Table walker requests started/completed, data/inst
system.cpu.itb.stage2_mmu.stage2_tlb.walker.walkRequestOrigin_Completed::Inst            0                       # Table walker requests started/completed, data/inst
system.cpu.itb.stage2_mmu.stage2_tlb.walker.walkRequestOrigin_Completed::total            0                       # Table walker requests started/completed, data/inst
system.cpu.itb.stage2_mmu.stage2_tlb.walker.walkRequestOrigin::total            0                       # Table walker requests started/completed, data/inst
system.cpu.itb.stage2_mmu.stage2_tlb.walker.walks            0                       # Table walker walks requested
system.cpu.itb.stage2_mmu.stage2_tlb.write_accesses            0                       # DTB write accesses
system.cpu.itb.stage2_mmu.stage2_tlb.write_hits            0                       # DTB write hits
system.cpu.itb.stage2_mmu.stage2_tlb.write_misses            0                       # DTB write misses
system.cpu.itb.walker.walkRequestOrigin_Requested::Data            0                       # Table walker requests started/completed, data/inst
system.cpu.itb.walker.walkRequestOrigin_Requested::Inst            0                       # Table walker requests started/completed, data/inst
system.cpu.itb.walker.walkRequestOrigin_Requested::total            0                       # Table walker requests started/completed, data/inst
system.cpu.itb.walker.walkRequestOrigin_Completed::Data            0                       # Table walker requests started/completed, data/inst
system.cpu.itb.walker.walkRequestOrigin_Completed::Inst            0                       # Table walker requests started/completed, data/inst
system.cpu.itb.walker.walkRequestOrigin_Completed::total            0                       # Table walker requests started/completed, data/inst
system.cpu.itb.walker.walkRequestOrigin::total            0                       # Table walker requests started/completed, data/inst
system.cpu.itb.walker.walks                         0                       # Table walker walks requested
system.cpu.itb.write_accesses                       0                       # DTB write accesses
system.cpu.itb.write_hits                           0                       # DTB write hits
system.cpu.itb.write_misses                         0                       # DTB write misses
system.cpu.numCycles                        156840382                       # number of cpu cycles simulated
system.cpu.numFetchSuspends                         0                       # Number of times Execute suspended instruction fetching
system.cpu.numWorkItemsCompleted                    0                       # number of work items this cpu completed
system.cpu.numWorkItemsStarted                      0                       # number of work items this cpu started
system.cpu.op_class_0::No_OpClass                   0      0.00%      0.00% # Class of committed instruction
system.cpu.op_class_0::IntAlu                46443154     46.35%     46.35% # Class of committed instruction
system.cpu.op_class_0::IntMult                  20720      0.02%     46.37% # Class of committed instruction
system.cpu.op_class_0::IntDiv                       0      0.00%     46.37% # Class of committed instruction
system.cpu.op_class_0::FloatAdd                     0      0.00%     46.37% # Class of committed instruction
system.cpu.op_class_0::FloatCmp                     0      0.00%     46.37% # Class of committed instruction
system.cpu.op_class_0::FloatCvt                     0      0.00%     46.37% # Class of committed instruction
system.cpu.op_class_0::FloatMult                    0      0.00%     46.37% # Class of committed instruction
system.cpu.op_class_0::FloatMultAcc                 0      0.00%     46.37% # Class of committed instruction
system.cpu.op_class_0::FloatDiv                     0      0.00%     46.37% # Class of committed instruction
system.cpu.op_class_0::FloatMisc                    0      0.00%     46.37% # Class of committed instruction
system.cpu.op_class_0::FloatSqrt                    0      0.00%     46.37% # Class of committed instruction
system.cpu.op_class_0::SimdAdd                      0      0.00%     46.37% # Class of committed instruction
system.cpu.op_class_0::SimdAddAcc                   0      0.00%     46.37% # Class of committed instruction
system.cpu.op_class_0::SimdAlu                      0      0.00%     46.37% # Class of committed instruction
system.cpu.op_class_0::SimdCmp                      0      0.00%     46.37% # Class of committed instruction
system.cpu.op_class_0::SimdCvt                      0      0.00%     46.37% # Class of committed instruction
system.cpu.op_class_0::SimdMisc                     0      0.00%     46.37% # Class of committed instruction
system.cpu.op_class_0::SimdMult                     0      0.00%     46.37% # Class of committed instruction
system.cpu.op_class_0::SimdMultAcc                  0      0.00%     46.37% # Class of committed instruction
system.cpu.op_class_0::SimdShift                    0      0.00%     46.37% # Class of committed instruction
system.cpu.op_class_0::SimdShiftAcc                 0      0.00%     46.37% # Class of committed instruction
system.cpu.op_class_0::SimdDiv                      0      0.00%     46.37% # Class of committed instruction
system.cpu.op_class_0::SimdSqrt                     0      0.00%     46.37% # Class of committed instruction
system.cpu.op_class_0::SimdFloatAdd                 0      0.00%     46.37% # Class of committed instruction
system.cpu.op_class_0::SimdFloatAlu                 0      0.00%     46.37% # Class of committed instruction
system.cpu.op_class_0::SimdFloatCmp                 0      0.00%     46.37% # Class of committed instruction
system.cpu.op_class_0::SimdFloatCvt                 0      0.00%     46.37% # Class of committed instruction
system.cpu.op_class_0::SimdFloatDiv                 0      0.00%     46.37% # Class of committed instruction
system.cpu.op_class_0::SimdFloatMisc                1      0.00%     46.37% # Class of committed instruction
system.cpu.op_class_0::SimdFloatMult                0      0.00%     46.37% # Class of committed instruction
system.cpu.op_class_0::SimdFloatMultAcc             0      0.00%     46.37% # Class of committed instruction
system.cpu.op_class_0::SimdFloatSqrt                0      0.00%     46.37% # Class of committed instruction
system.cpu.op_class_0::SimdReduceAdd                0      0.00%     46.37% # Class of committed instruction
system.cpu.op_class_0::SimdReduceAlu                0      0.00%     46.37% # Class of committed instruction
system.cpu.op_class_0::SimdReduceCmp                0      0.00%     46.37% # Class of committed instruction
system.cpu.op_class_0::SimdFloatReduceAdd            0      0.00%     46.37% # Class of committed instruction
system.cpu.op_class_0::SimdFloatReduceCmp            0      0.00%     46.37% # Class of committed instruction
system.cpu.op_class_0::SimdAes                      0      0.00%     46.37% # Class of committed instruction
system.cpu.op_class_0::SimdAesMix                   0      0.00%     46.37% # Class of committed instruction
system.cpu.op_class_0::SimdSha1Hash                 0      0.00%     46.37% # Class of committed instruction
system.cpu.op_class_0::SimdSha1Hash2                0      0.00%     46.37% # Class of committed instruction
system.cpu.op_class_0::SimdSha256Hash               0      0.00%     46.37% # Class of committed instruction
system.cpu.op_class_0::SimdSha256Hash2              0      0.00%     46.37% # Class of committed instruction
system.cpu.op_class_0::SimdShaSigma2                0      0.00%     46.37% # Class of committed instruction
system.cpu.op_class_0::SimdShaSigma3                0      0.00%     46.37% # Class of committed instruction
system.cpu.op_class_0::SimdPredAlu                  0      0.00%     46.37% # Class of committed instruction
system.cpu.op_class_0::MemRead               42756988     42.67%     89.04% # Class of committed instruction
system.cpu.op_class_0::MemWrite              10978706     10.96%    100.00% # Class of committed instruction
system.cpu.op_class_0::FloatMemRead                 0      0.00%    100.00% # Class of committed instruction
system.cpu.op_class_0::FloatMemWrite                0      0.00%    100.00% # Class of committed instruction
system.cpu.op_class_0::IprAccess                    0      0.00%    100.00% # Class of committed instruction
system.cpu.op_class_0::InstPrefetch                 0      0.00%    100.00% # Class of committed instruction
system.cpu.op_class_0::total                100199569                       # Class of committed instruction
system.cpu.tickCycles                       132507949                       # Number of cycles that the object actually ticked
system.cpu.workload.numSyscalls                    85                       # Number of system calls
system.membus.snoop_filter.hit_multi_requests            0                       # Number of requests hitting in the snoop filter with multiple (>1) holders of the requested data.
system.membus.snoop_filter.hit_multi_snoops            0                       # Number of snoops hitting in the snoop filter with multiple (>1) holders of the requested data.
system.membus.snoop_filter.hit_single_requests       167835                       # Number of requests hitting in the snoop filter with a single holder of the requested data.
system.membus.snoop_filter.hit_single_snoops            0                       # Number of snoops hitting in the snoop filter with a single holder of the requested data.
system.membus.snoop_filter.tot_requests        368941                       # Total number of requests made to the snoop filter.
system.membus.snoop_filter.tot_snoops               0                       # Total number of snoops made to the snoop filter.
system.tol2bus.snoop_filter.hit_multi_requests           54                       # Number of requests hitting in the snoop filter with multiple (>1) holders of the requested data.
system.tol2bus.snoop_filter.hit_multi_snoops            0                       # Number of snoops hitting in the snoop filter with multiple (>1) holders of the requested data.
system.tol2bus.snoop_filter.hit_single_requests       467499                       # Number of requests hitting in the snoop filter with a single holder of the requested data.
system.tol2bus.snoop_filter.hit_single_snoops          570                       # Number of snoops hitting in the snoop filter with a single holder of the requested data.
system.tol2bus.snoop_filter.tot_requests       937644                       # Total number of requests made to the snoop filter.
system.tol2bus.snoop_filter.tot_snoops            570                       # Total number of snoops made to the snoop filter.
system.membus.pwrStateResidencyTicks::UNDEFINED 156840382000                       # Cumulative time (in ticks) in various power states
system.membus.trans_dist::ReadResp              64886                       # Transaction distribution
system.membus.trans_dist::WritebackDirty       111185                       # Transaction distribution
system.membus.trans_dist::CleanEvict            56642                       # Transaction distribution
system.membus.trans_dist::ReadExReq            136228                       # Transaction distribution
system.membus.trans_dist::ReadExResp           136228                       # Transaction distribution
system.membus.trans_dist::ReadSharedReq         64886                       # Transaction distribution
system.membus.pkt_count_system.l2.mem_side::system.mem_ctrls.port       570055                       # Packet count per connected master and slave (bytes)
system.membus.pkt_count::total                 570055                       # Packet count per connected master and slave (bytes)
system.membus.pkt_size_system.l2.mem_side::system.mem_ctrls.port     19987136                       # Cumulative packet size per connected master and slave (bytes)
system.membus.pkt_size::total                19987136                       # Cumulative packet size per connected master and slave (bytes)
system.membus.snoops                                0                       # Total snoops (count)
system.membus.snoopTraffic                          0                       # Total snoop traffic (bytes)
system.membus.snoop_fanout::samples            201114                       # Request fanout histogram
system.membus.snoop_fanout::mean                    0                       # Request fanout histogram
system.membus.snoop_fanout::stdev                   0                       # Request fanout histogram
system.membus.snoop_fanout::underflows              0      0.00%      0.00% # Request fanout histogram
system.membus.snoop_fanout::0                  201114    100.00%    100.00% # Request fanout histogram
system.membus.snoop_fanout::1                       0      0.00%    100.00% # Request fanout histogram
system.membus.snoop_fanout::overflows               0      0.00%    100.00% # Request fanout histogram
system.membus.snoop_fanout::min_value               0                       # Request fanout histogram
system.membus.snoop_fanout::max_value               0                       # Request fanout histogram
system.membus.snoop_fanout::total              201114                       # Request fanout histogram
system.membus.respLayer1.occupancy         1086969250                       # Layer occupancy (ticks)
system.membus.respLayer1.utilization              0.7                       # Layer utilization (%)
system.membus.reqLayer0.occupancy           813681000                       # Layer occupancy (ticks)
system.membus.reqLayer0.utilization               0.5                       # Layer utilization (%)
system.tol2bus.pwrStateResidencyTicks::UNDEFINED 156840382000                       # Cumulative time (in ticks) in various power states
system.tol2bus.trans_dist::ReadResp            244013                       # Transaction distribution
system.tol2bus.trans_dist::WritebackDirty       505115                       # Transaction distribution
system.tol2bus.trans_dist::WritebackClean          109                       # Transaction distribution
system.tol2bus.trans_dist::CleanEvict          130670                       # Transaction distribution
system.tol2bus.trans_dist::ReadExReq           226134                       # Transaction distribution
system.tol2bus.trans_dist::ReadExResp          226134                       # Transaction distribution
system.tol2bus.trans_dist::ReadCleanReq           711                       # Transaction distribution
system.tol2bus.trans_dist::ReadSharedReq       243302                       # Transaction distribution
system.tol2bus.pkt_count_system.cpu.icache.mem_side::system.l2.cpu_side         1531                       # Packet count per connected master and slave (bytes)
system.tol2bus.pkt_count_system.cpu.dcache.mem_side::system.l2.cpu_side      1406260                       # Packet count per connected master and slave (bytes)
system.tol2bus.pkt_count::total               1407791                       # Packet count per connected master and slave (bytes)
system.tol2bus.pkt_size_system.cpu.icache.mem_side::system.l2.cpu_side        52480                       # Cumulative packet size per connected master and slave (bytes)
system.tol2bus.pkt_size_system.cpu.dcache.mem_side::system.l2.cpu_side     55255424                       # Cumulative packet size per connected master and slave (bytes)
system.tol2bus.pkt_size::total               55307904                       # Cumulative packet size per connected master and slave (bytes)
system.tol2bus.snoops                          168397                       # Total snoops (count)
system.tol2bus.snoopTraffic                   7115840                       # Total snoop traffic (bytes)
system.tol2bus.snoop_fanout::samples           638544                       # Request fanout histogram
system.tol2bus.snoop_fanout::mean            0.000980                       # Request fanout histogram
system.tol2bus.snoop_fanout::stdev           0.031295                       # Request fanout histogram
system.tol2bus.snoop_fanout::underflows             0      0.00%      0.00% # Request fanout histogram
system.tol2bus.snoop_fanout::0                 637918     99.90%     99.90% # Request fanout histogram
system.tol2bus.snoop_fanout::1                    626      0.10%    100.00% # Request fanout histogram
system.tol2bus.snoop_fanout::2                      0      0.00%    100.00% # Request fanout histogram
system.tol2bus.snoop_fanout::overflows              0      0.00%    100.00% # Request fanout histogram
system.tol2bus.snoop_fanout::min_value              0                       # Request fanout histogram
system.tol2bus.snoop_fanout::max_value              1                       # Request fanout histogram
system.tol2bus.snoop_fanout::total             638544                       # Request fanout histogram
system.tol2bus.reqLayer0.occupancy         1725722000                       # Layer occupancy (ticks)
system.tol2bus.reqLayer0.utilization              1.1                       # Layer utilization (%)
system.tol2bus.respLayer1.occupancy        1408312995                       # Layer occupancy (ticks)
system.tol2bus.respLayer1.utilization             0.9                       # Layer utilization (%)
system.tol2bus.respLayer0.occupancy           2133000                       # Layer occupancy (ticks)
system.tol2bus.respLayer0.utilization             0.0                       # Layer utilization (%)
system.voltage_domain.voltage                       1                       # Voltage in Volts
system.clk_domain.clock                          1000                       # Clock period in ticks
system.l2.pwrStateResidencyTicks::UNDEFINED 156840382000                       # Cumulative time (in ticks) in various power states
system.l2.demand_hits::.cpu.inst                   48                       # number of demand (read+write) hits
system.l2.demand_hits::.cpu.data               268980                       # number of demand (read+write) hits
system.l2.demand_hits::total                   269028                       # number of demand (read+write) hits
system.l2.overall_hits::.cpu.inst                  48                       # number of overall hits
system.l2.overall_hits::.cpu.data              268980                       # number of overall hits
system.l2.overall_hits::total                  269028                       # number of overall hits
system.l2.demand_misses::.cpu.inst                663                       # number of demand (read+write) misses
system.l2.demand_misses::.cpu.data             200456                       # number of demand (read+write) misses
system.l2.demand_misses::total                 201119                       # number of demand (read+write) misses
system.l2.overall_misses::.cpu.inst               663                       # number of overall misses
system.l2.overall_misses::.cpu.data            200456                       # number of overall misses
system.l2.overall_misses::total                201119                       # number of overall misses
system.l2.demand_miss_latency::.cpu.inst     65523000                       # number of demand (read+write) miss cycles
system.l2.demand_miss_latency::.cpu.data  20918890000                       # number of demand (read+write) miss cycles
system.l2.demand_miss_latency::total      20984413000                       # number of demand (read+write) miss cycles
system.l2.overall_miss_latency::.cpu.inst     65523000                       # number of overall miss cycles
system.l2.overall_miss_latency::.cpu.data  20918890000                       # number of overall miss cycles
system.l2.overall_miss_latency::total     20984413000                       # number of overall miss cycles
system.l2.demand_accesses::.cpu.inst              711                       # number of demand (read+write) accesses
system.l2.demand_accesses::.cpu.data           469436                       # number of demand (read+write) accesses
system.l2.demand_accesses::total               470147                       # number of demand (read+write) accesses
system.l2.overall_accesses::.cpu.inst             711                       # number of overall (read+write) accesses
system.l2.overall_accesses::.cpu.data          469436                       # number of overall (read+write) accesses
system.l2.overall_accesses::total              470147                       # number of overall (read+write) accesses
system.l2.demand_miss_rate::.cpu.inst        0.932489                       # miss rate for demand accesses
system.l2.demand_miss_rate::.cpu.data        0.427015                       # miss rate for demand accesses
system.l2.demand_miss_rate::total            0.427779                       # miss rate for demand accesses
system.l2.overall_miss_rate::.cpu.inst       0.932489                       # miss rate for overall accesses
system.l2.overall_miss_rate::.cpu.data       0.427015                       # miss rate for overall accesses
system.l2.overall_miss_rate::total           0.427779                       # miss rate for overall accesses
system.l2.demand_avg_miss_latency::.cpu.inst 98828.054299                       # average overall miss latency
system.l2.demand_avg_miss_latency::.cpu.data 104356.517141                       # average overall miss latency
system.l2.demand_avg_miss_latency::total 104338.292255                       # average overall miss latency
system.l2.overall_avg_miss_latency::.cpu.inst 98828.054299                       # average overall miss latency
system.l2.overall_avg_miss_latency::.cpu.data 104356.517141                       # average overall miss latency
system.l2.overall_avg_miss_latency::total 104338.292255                       # average overall miss latency
system.l2.blocked_cycles::no_mshrs                  0                       # number of cycles access was blocked
system.l2.blocked_cycles::no_targets                0                       # number of cycles access was blocked
system.l2.blocked::no_mshrs                         0                       # number of cycles access was blocked
system.l2.blocked::no_targets                       0                       # number of cycles access was blocked
system.l2.avg_blocked_cycles::no_mshrs            nan                       # average number of cycles each access was blocked
system.l2.avg_blocked_cycles::no_targets          nan                       # average number of cycles each access was blocked
system.l2.writebacks::.writebacks              111185                       # number of writebacks
system.l2.writebacks::total                    111185                       # number of writebacks
system.l2.demand_mshr_hits::.cpu.data               5                       # number of demand (read+write) MSHR hits
system.l2.demand_mshr_hits::total                   5                       # number of demand (read+write) MSHR hits
system.l2.overall_mshr_hits::.cpu.data              5                       # number of overall MSHR hits
system.l2.overall_mshr_hits::total                  5                       # number of overall MSHR hits
system.l2.demand_mshr_misses::.cpu.inst           663                       # number of demand (read+write) MSHR misses
system.l2.demand_mshr_misses::.cpu.data        200451                       # number of demand (read+write) MSHR misses
system.l2.demand_mshr_misses::total            201114                       # number of demand (read+write) MSHR misses
system.l2.overall_mshr_misses::.cpu.inst          663                       # number of overall MSHR misses
system.l2.overall_mshr_misses::.cpu.data       200451                       # number of overall MSHR misses
system.l2.overall_mshr_misses::total           201114                       # number of overall MSHR misses
system.l2.demand_mshr_miss_latency::.cpu.inst     52263000                       # number of demand (read+write) MSHR miss cycles
system.l2.demand_mshr_miss_latency::.cpu.data  16909459000                       # number of demand (read+write) MSHR miss cycles
system.l2.demand_mshr_miss_latency::total  16961722000                       # number of demand (read+write) MSHR miss cycles
system.l2.overall_mshr_miss_latency::.cpu.inst     52263000                       # number of overall MSHR miss cycles
system.l2.overall_mshr_miss_latency::.cpu.data  16909459000                       # number of overall MSHR miss cycles
system.l2.overall_mshr_miss_latency::total  16961722000                       # number of overall MSHR miss cycles
system.l2.demand_mshr_miss_rate::.cpu.inst     0.932489                       # mshr miss rate for demand accesses
system.l2.demand_mshr_miss_rate::.cpu.data     0.427004                       # mshr miss rate for demand accesses
system.l2.demand_mshr_miss_rate::total       0.427768                       # mshr miss rate for demand accesses
system.l2.overall_mshr_miss_rate::.cpu.inst     0.932489                       # mshr miss rate for overall accesses
system.l2.overall_mshr_miss_rate::.cpu.data     0.427004                       # mshr miss rate for overall accesses
system.l2.overall_mshr_miss_rate::total      0.427768                       # mshr miss rate for overall accesses
system.l2.demand_avg_mshr_miss_latency::.cpu.inst 78828.054299                       # average overall mshr miss latency
system.l2.demand_avg_mshr_miss_latency::.cpu.data 84357.069808                       # average overall mshr miss latency
system.l2.demand_avg_mshr_miss_latency::total 84338.842646                       # average overall mshr miss latency
system.l2.overall_avg_mshr_miss_latency::.cpu.inst 78828.054299                       # average overall mshr miss latency
system.l2.overall_avg_mshr_miss_latency::.cpu.data 84357.069808                       # average overall mshr miss latency
system.l2.overall_avg_mshr_miss_latency::total 84338.842646                       # average overall mshr miss latency
system.l2.replacements                         168397                       # number of replacements
system.l2.WritebackDirty_hits::.writebacks       393930                       # number of WritebackDirty hits
system.l2.WritebackDirty_hits::total           393930                       # number of WritebackDirty hits
system.l2.WritebackDirty_accesses::.writebacks       393930                       # number of WritebackDirty accesses(hits+misses)
system.l2.WritebackDirty_accesses::total       393930                       # number of WritebackDirty accesses(hits+misses)
system.l2.WritebackClean_hits::.writebacks          108                       # number of WritebackClean hits
system.l2.WritebackClean_hits::total              108                       # number of WritebackClean hits
system.l2.WritebackClean_accesses::.writebacks          108                       # number of WritebackClean accesses(hits+misses)
system.l2.WritebackClean_accesses::total          108                       # number of WritebackClean accesses(hits+misses)
system.l2.ReadExReq_hits::.cpu.data             89906                       # number of ReadExReq hits
system.l2.ReadExReq_hits::total                 89906                       # number of ReadExReq hits
system.l2.ReadExReq_misses::.cpu.data          136228                       # number of ReadExReq misses
system.l2.ReadExReq_misses::total              136228                       # number of ReadExReq misses
system.l2.ReadExReq_miss_latency::.cpu.data  14503815000                       # number of ReadExReq miss cycles
system.l2.ReadExReq_miss_latency::total   14503815000                       # number of ReadExReq miss cycles
system.l2.ReadExReq_accesses::.cpu.data        226134                       # number of ReadExReq accesses(hits+misses)
system.l2.ReadExReq_accesses::total            226134                       # number of ReadExReq accesses(hits+misses)
system.l2.ReadExReq_miss_rate::.cpu.data     0.602422                       # miss rate for ReadExReq accesses
system.l2.ReadExReq_miss_rate::total         0.602422                       # miss rate for ReadExReq accesses
system.l2.ReadExReq_avg_miss_latency::.cpu.data 106467.209384                       # average ReadExReq miss latency
system.l2.ReadExReq_avg_miss_latency::total 106467.209384                       # average ReadExReq miss latency
system.l2.ReadExReq_mshr_misses::.cpu.data       136228                       # number of ReadExReq MSHR misses
system.l2.ReadExReq_mshr_misses::total         136228                       # number of ReadExReq MSHR misses
system.l2.ReadExReq_mshr_miss_latency::.cpu.data  11779255000                       # number of ReadExReq MSHR miss cycles
system.l2.ReadExReq_mshr_miss_latency::total  11779255000                       # number of ReadExReq MSHR miss cycles
system.l2.ReadExReq_mshr_miss_rate::.cpu.data     0.602422                       # mshr miss rate for ReadExReq accesses
system.l2.ReadExReq_mshr_miss_rate::total     0.602422                       # mshr miss rate for ReadExReq accesses
system.l2.ReadExReq_avg_mshr_miss_latency::.cpu.data 86467.209384                       # average ReadExReq mshr miss latency
system.l2.ReadExReq_avg_mshr_miss_latency::total 86467.209384                       # average ReadExReq mshr miss latency
system.l2.ReadCleanReq_hits::.cpu.inst             48                       # number of ReadCleanReq hits
system.l2.ReadCleanReq_hits::total                 48                       # number of ReadCleanReq hits
system.l2.ReadCleanReq_misses::.cpu.inst          663                       # number of ReadCleanReq misses
system.l2.ReadCleanReq_misses::total              663                       # number of ReadCleanReq misses
system.l2.ReadCleanReq_miss_latency::.cpu.inst     65523000                       # number of ReadCleanReq miss cycles
system.l2.ReadCleanReq_miss_latency::total     65523000                       # number of ReadCleanReq miss cycles
system.l2.ReadCleanReq_accesses::.cpu.inst          711                       # number of ReadCleanReq accesses(hits+misses)
system.l2.ReadCleanReq_accesses::total            711                       # number of ReadCleanReq accesses(hits+misses)
system.l2.ReadCleanReq_miss_rate::.cpu.inst     0.932489                       # miss rate for ReadCleanReq accesses
system.l2.ReadCleanReq_miss_rate::total      0.932489                       # miss rate for ReadCleanReq accesses
system.l2.ReadCleanReq_avg_miss_latency::.cpu.inst 98828.054299                       # average ReadCleanReq miss latency
system.l2.ReadCleanReq_avg_miss_latency::total 98828.054299                       # average ReadCleanReq miss latency
system.l2.ReadCleanReq_mshr_misses::.cpu.inst          663                       # number of ReadCleanReq MSHR misses
system.l2.ReadCleanReq_mshr_misses::total          663                       # number of ReadCleanReq MSHR misses
system.l2.ReadCleanReq_mshr_miss_latency::.cpu.inst     52263000                       # number of ReadCleanReq MSHR miss cycles
system.l2.ReadCleanReq_mshr_miss_latency::total     52263000                       # number of ReadCleanReq MSHR miss cycles
system.l2.ReadCleanReq_mshr_miss_rate::.cpu.inst     0.932489                       # mshr miss rate for ReadCleanReq accesses
system.l2.ReadCleanReq_mshr_miss_rate::total     0.932489                       # mshr miss rate for ReadCleanReq accesses
system.l2.ReadCleanReq_avg_mshr_miss_latency::.cpu.inst 78828.054299                       # average ReadCleanReq mshr miss latency
system.l2.ReadCleanReq_avg_mshr_miss_latency::total 78828.054299                       # average ReadCleanReq mshr miss latency
system.l2.ReadSharedReq_hits::.cpu.data        179074                       # number of ReadSharedReq hits
system.l2.ReadSharedReq_hits::total            179074                       # number of ReadSharedReq hits
system.l2.ReadSharedReq_misses::.cpu.data        64228                       # number of ReadSharedReq misses
system.l2.ReadSharedReq_misses::total           64228                       # number of ReadSharedReq misses
system.l2.ReadSharedReq_miss_latency::.cpu.data   6415075000                       # number of ReadSharedReq miss cycles
system.l2.ReadSharedReq_miss_latency::total   6415075000                       # number of ReadSharedReq miss cycles
system.l2.ReadSharedReq_accesses::.cpu.data       243302                       # number of ReadSharedReq accesses(hits+misses)
system.l2.ReadSharedReq_accesses::total        243302                       # number of ReadSharedReq accesses(hits+misses)
system.l2.ReadSharedReq_miss_rate::.cpu.data     0.263985                       # miss rate for ReadSharedReq accesses
system.l2.ReadSharedReq_miss_rate::total     0.263985                       # miss rate for ReadSharedReq accesses
system.l2.ReadSharedReq_avg_miss_latency::.cpu.data 99879.725353                       # average ReadSharedReq miss latency
system.l2.ReadSharedReq_avg_miss_latency::total 99879.725353                       # average ReadSharedReq miss latency
system.l2.ReadSharedReq_mshr_hits::.cpu.data            5                       # number of ReadSharedReq MSHR hits
system.l2.ReadSharedReq_mshr_hits::total            5                       # number of ReadSharedReq MSHR hits
system.l2.ReadSharedReq_mshr_misses::.cpu.data        64223                       # number of ReadSharedReq MSHR misses
system.l2.ReadSharedReq_mshr_misses::total        64223                       # number of ReadSharedReq MSHR misses
system.l2.ReadSharedReq_mshr_miss_latency::.cpu.data   5130204000                       # number of ReadSharedReq MSHR miss cycles
system.l2.ReadSharedReq_mshr_miss_latency::total   5130204000                       # number of ReadSharedReq MSHR miss cycles
system.l2.ReadSharedReq_mshr_miss_rate::.cpu.data     0.263964                       # mshr miss rate for ReadSharedReq accesses
system.l2.ReadSharedReq_mshr_miss_rate::total     0.263964                       # mshr miss rate for ReadSharedReq accesses
system.l2.ReadSharedReq_avg_mshr_miss_latency::.cpu.data 79881.101786                       # average ReadSharedReq mshr miss latency
system.l2.ReadSharedReq_avg_mshr_miss_latency::total 79881.101786                       # average ReadSharedReq mshr miss latency
system.l2.tags.pwrStateResidencyTicks::UNDEFINED 156840382000                       # Cumulative time (in ticks) in various power states
system.l2.tags.tagsinuse                 32141.032332                       # Cycle average of tags in use
system.l2.tags.total_refs                      937585                       # Total number of references to valid blocks.
system.l2.tags.sampled_refs                    201165                       # Sample count of references to valid blocks.
system.l2.tags.avg_refs                      4.660776                       # Average number of references to valid blocks.
system.l2.tags.warmup_cycle                     87000                       # Cycle when the warmup percentage was hit.
system.l2.tags.occ_blocks::.writebacks      17.932084                       # Average occupied blocks per requestor
system.l2.tags.occ_blocks::.cpu.inst        80.881487                       # Average occupied blocks per requestor
system.l2.tags.occ_blocks::.cpu.data     32042.218762                       # Average occupied blocks per requestor
system.l2.tags.occ_percent::.writebacks      0.000547                       # Average percentage of cache occupancy
system.l2.tags.occ_percent::.cpu.inst        0.002468                       # Average percentage of cache occupancy
system.l2.tags.occ_percent::.cpu.data        0.977851                       # Average percentage of cache occupancy
system.l2.tags.occ_percent::total            0.980866                       # Average percentage of cache occupancy
system.l2.tags.occ_task_id_blocks::1024         32768                       # Occupied blocks per task id
system.l2.tags.age_task_id_blocks_1024::0           18                       # Occupied blocks per task id
system.l2.tags.age_task_id_blocks_1024::1           95                       # Occupied blocks per task id
system.l2.tags.age_task_id_blocks_1024::2          593                       # Occupied blocks per task id
system.l2.tags.age_task_id_blocks_1024::3         8174                       # Occupied blocks per task id
system.l2.tags.age_task_id_blocks_1024::4        23888                       # Occupied blocks per task id
system.l2.tags.occ_task_id_percent::1024            1                       # Percentage of cache occupancy per task id
system.l2.tags.tag_accesses                   7701885                       # Number of tag accesses
system.l2.tags.data_accesses                  7701885                       # Number of data accesses
system.cpu_voltage_domain.voltage                   1                       # Voltage in Volts
system.mem_ctrls.pwrStateResidencyTicks::UNDEFINED 156840382000                       # Cumulative time (in ticks) in various power states
system.mem_ctrls.bytes_read::.cpu.inst          42432                       # Number of bytes read from this memory
system.mem_ctrls.bytes_read::.cpu.data       12828864                       # Number of bytes read from this memory
system.mem_ctrls.bytes_read::total           12871296                       # Number of bytes read from this memory
system.mem_ctrls.bytes_inst_read::.cpu.inst        42432                       # Number of instructions bytes read from this memory
system.mem_ctrls.bytes_inst_read::total         42432                       # Number of instructions bytes read from this memory
system.mem_ctrls.bytes_written::.writebacks      7115840                       # Number of bytes written to this memory
system.mem_ctrls.bytes_written::total         7115840                       # Number of bytes written to this memory
system.mem_ctrls.num_reads::.cpu.inst             663                       # Number of read requests responded to by this memory
system.mem_ctrls.num_reads::.cpu.data          200451                       # Number of read requests responded to by this memory
system.mem_ctrls.num_reads::total              201114                       # Number of read requests responded to by this memory
system.mem_ctrls.num_writes::.writebacks       111185                       # Number of write requests responded to by this memory
system.mem_ctrls.num_writes::total             111185                       # Number of write requests responded to by this memory
system.mem_ctrls.bw_read::.cpu.inst            270543                       # Total read bandwidth from this memory (bytes/s)
system.mem_ctrls.bw_read::.cpu.data          81795669                       # Total read bandwidth from this memory (bytes/s)
system.mem_ctrls.bw_read::total              82066212                       # Total read bandwidth from this memory (bytes/s)
system.mem_ctrls.bw_inst_read::.cpu.inst       270543                       # Instruction read bandwidth from this memory (bytes/s)
system.mem_ctrls.bw_inst_read::total           270543                       # Instruction read bandwidth from this memory (bytes/s)
system.mem_ctrls.bw_write::.writebacks       45369948                       # Write bandwidth from this memory (bytes/s)
system.mem_ctrls.bw_write::total             45369948                       # Write bandwidth from this memory (bytes/s)
system.mem_ctrls.bw_total::.writebacks       45369948                       # Total bandwidth to/from this memory (bytes/s)
system.mem_ctrls.bw_total::.cpu.inst           270543                       # Total bandwidth to/from this memory (bytes/s)
system.mem_ctrls.bw_total::.cpu.data         81795669                       # Total bandwidth to/from this memory (bytes/s)
system.mem_ctrls.bw_total::total            127436160                       # Total bandwidth to/from this memory (bytes/s)
system.mem_ctrls.avgPriority_.writebacks::samples    111185.00                       # Average QoS priority value for accepted requests
system.mem_ctrls.avgPriority_.cpu.inst::samples       663.00                       # Average QoS priority value for accepted requests
system.mem_ctrls.avgPriority_.cpu.data::samples    200414.00                       # Average QoS priority value for accepted requests
system.mem_ctrls.priorityMinLatency      0.000000018750                       # per QoS priority minimum request to response latency (s)
system.mem_ctrls.priorityMaxLatency      0.005911822250                       # per QoS priority maximum request to response latency (s)
system.mem_ctrls.numReadWriteTurnArounds         6621                       # Number of turnarounds from READ to WRITE
system.mem_ctrls.numWriteReadTurnArounds         6621                       # Number of turnarounds from WRITE to READ
system.mem_ctrls.numStayReadState              544597                       # Number of times bus staying in READ state
system.mem_ctrls.numStayWriteState             104718                       # Number of times bus staying in WRITE state
system.mem_ctrls.readReqs                      201114                       # Number of read requests accepted
system.mem_ctrls.writeReqs                     111185                       # Number of write requests accepted
system.mem_ctrls.readBursts                    201114                       # Number of DRAM read bursts, including those serviced by the write queue
system.mem_ctrls.writeBursts                   111185                       # Number of DRAM write bursts, including those merged in the write queue
system.mem_ctrls.servicedByWrQ                     37                       # Number of DRAM read bursts serviced by the write queue
system.mem_ctrls.mergedWrBursts                     0                       # Number of DRAM write bursts merged with an existing one
system.mem_ctrls.neitherReadNorWriteReqs            0                       # Number of requests that are neither read nor write
system.mem_ctrls.perBankRdBursts::0             12772                       # Per bank write bursts
system.mem_ctrls.perBankRdBursts::1             12867                       # Per bank write bursts
system.mem_ctrls.perBankRdBursts::2             12568                       # Per bank write bursts
system.mem_ctrls.perBankRdBursts::3             12430                       # Per bank write bursts
system.mem_ctrls.perBankRdBursts::4             12280                       # Per bank write bursts
system.mem_ctrls.perBankRdBursts::5             12445                       # Per bank write bursts
system.mem_ctrls.perBankRdBursts::6             12439                       # Per bank write bursts
system.mem_ctrls.perBankRdBursts::7             12391                       # Per bank write bursts
system.mem_ctrls.perBankRdBursts::8             12498                       # Per bank write bursts
system.mem_ctrls.perBankRdBursts::9             12443                       # Per bank write bursts
system.mem_ctrls.perBankRdBursts::10            12463                       # Per bank write bursts
system.mem_ctrls.perBankRdBursts::11            12827                       # Per bank write bursts
system.mem_ctrls.perBankRdBursts::12            12667                       # Per bank write bursts
system.mem_ctrls.perBankRdBursts::13            12649                       # Per bank write bursts
system.mem_ctrls.perBankRdBursts::14            12685                       # Per bank write bursts
system.mem_ctrls.perBankRdBursts::15            12653                       # Per bank write bursts
system.mem_ctrls.perBankWrBursts::0              7084                       # Per bank write bursts
system.mem_ctrls.perBankWrBursts::1              7209                       # Per bank write bursts
system.mem_ctrls.perBankWrBursts::2              6993                       # Per bank write bursts
system.mem_ctrls.perBankWrBursts::3              6921                       # Per bank write bursts
system.mem_ctrls.perBankWrBursts::4              6935                       # Per bank write bursts
system.mem_ctrls.perBankWrBursts::5              6812                       # Per bank write bursts
system.mem_ctrls.perBankWrBursts::6              6801                       # Per bank write bursts
system.mem_ctrls.perBankWrBursts::7              6743                       # Per bank write bursts
system.mem_ctrls.perBankWrBursts::8              6834                       # Per bank write bursts
system.mem_ctrls.perBankWrBursts::9              6858                       # Per bank write bursts
system.mem_ctrls.perBankWrBursts::10             6782                       # Per bank write bursts
system.mem_ctrls.perBankWrBursts::11             7055                       # Per bank write bursts
system.mem_ctrls.perBankWrBursts::12             7001                       # Per bank write bursts
system.mem_ctrls.perBankWrBursts::13             6973                       # Per bank write bursts
system.mem_ctrls.perBankWrBursts::14             7066                       # Per bank write bursts
system.mem_ctrls.perBankWrBursts::15             7091                       # Per bank write bursts
system.mem_ctrls.avgRdQLen                       1.05                       # Average read queue length when enqueuing
system.mem_ctrls.avgWrQLen                      24.95                       # Average write queue length when enqueuing
system.mem_ctrls.totQLat                   2849087250                       # Total ticks spent queuing
system.mem_ctrls.totBusLat                 1005385000                       # Total ticks spent in databus transfers
system.mem_ctrls.totMemAccLat              6619281000                       # Total ticks spent from burst creation until serviced by the DRAM
system.mem_ctrls.avgQLat                     14169.14                       # Average queueing delay per DRAM burst
system.mem_ctrls.avgBusLat                    5000.00                       # Average bus latency per DRAM burst
system.mem_ctrls.avgMemAccLat                32919.14                       # Average memory access latency per DRAM burst
system.mem_ctrls.numRdRetry                         0                       # Number of times read queue was full causing retry
system.mem_ctrls.numWrRetry                         0                       # Number of times write queue was full causing retry
system.mem_ctrls.readRowHits                   132099                       # Number of row buffer hits during reads
system.mem_ctrls.writeRowHits                   69541                       # Number of row buffer hits during writes
system.mem_ctrls.readRowHitRate                 65.70                       # Row buffer hit rate for reads
system.mem_ctrls.writeRowHitRate                62.55                       # Row buffer hit rate for writes
system.mem_ctrls.readPktSize::0                     0                       # Read request sizes (log2)
system.mem_ctrls.readPktSize::1                     0                       # Read request sizes (log2)
system.mem_ctrls.readPktSize::2                     0                       # Read request sizes (log2)
system.mem_ctrls.readPktSize::3                     0                       # Read request sizes (log2)
system.mem_ctrls.readPktSize::4                     0                       # Read request sizes (log2)
system.mem_ctrls.readPktSize::5                     0                       # Read request sizes (log2)
system.mem_ctrls.readPktSize::6                201114                       # Read request sizes (log2)
system.mem_ctrls.writePktSize::0                    0                       # Write request sizes (log2)
system.mem_ctrls.writePktSize::1                    0                       # Write request sizes (log2)
system.mem_ctrls.writePktSize::2                    0                       # Write request sizes (log2)
system.mem_ctrls.writePktSize::3                    0                       # Write request sizes (log2)
system.mem_ctrls.writePktSize::4                    0                       # Write request sizes (log2)
system.mem_ctrls.writePktSize::5                    0                       # Write request sizes (log2)
system.mem_ctrls.writePktSize::6               111185                       # Write request sizes (log2)
system.mem_ctrls.rdQLenPdf::0                  152135                       # What read queue length does an incoming req see
system.mem_ctrls.rdQLenPdf::1                   48464                       # What read queue length does an incoming req see
system.mem_ctrls.rdQLenPdf::2                     285                       # What read queue length does an incoming req see
system.mem_ctrls.rdQLenPdf::3                     192                       # What read queue length does an incoming req see
system.mem_ctrls.rdQLenPdf::4                       1                       # What read queue length does an incoming req see
system.mem_ctrls.rdQLenPdf::5                       0                       # What read queue length does an incoming req see
system.mem_ctrls.rdQLenPdf::6                       0                       # What read queue length does an incoming req see
system.mem_ctrls.rdQLenPdf::7                       0                       # What read queue length does an incoming req see
system.mem_ctrls.rdQLenPdf::8                       0                       # What read queue length does an incoming req see
system.mem_ctrls.rdQLenPdf::9                       0                       # What read queue length does an incoming req see
system.mem_ctrls.rdQLenPdf::10                      0                       # What read queue length does an incoming req see
system.mem_ctrls.rdQLenPdf::11                      0                       # What read queue length does an incoming req see
system.mem_ctrls.rdQLenPdf::12                      0                       # What read queue length does an incoming req see
system.mem_ctrls.rdQLenPdf::13                      0                       # What read queue length does an incoming req see
system.mem_ctrls.rdQLenPdf::14                      0                       # What read queue length does an incoming req see
system.mem_ctrls.rdQLenPdf::15                      0                       # What read queue length does an incoming req see
system.mem_ctrls.rdQLenPdf::16                      0                       # What read queue length does an incoming req see
system.mem_ctrls.rdQLenPdf::17                      0                       # What read queue length does an incoming req see
system.mem_ctrls.rdQLenPdf::18                      0                       # What read queue length does an incoming req see
system.mem_ctrls.rdQLenPdf::19                      0                       # What read queue length does an incoming req see
system.mem_ctrls.rdQLenPdf::20                      0                       # What read queue length does an incoming req see
system.mem_ctrls.rdQLenPdf::21                      0                       # What read queue length does an incoming req see
system.mem_ctrls.rdQLenPdf::22                      0                       # What read queue length does an incoming req see
system.mem_ctrls.rdQLenPdf::23                      0                       # What read queue length does an incoming req see
system.mem_ctrls.rdQLenPdf::24                      0                       # What read queue length does an incoming req see
system.mem_ctrls.rdQLenPdf::25                      0                       # What read queue length does an incoming req see
system.mem_ctrls.rdQLenPdf::26                      0                       # What read queue length does an incoming req see
system.mem_ctrls.rdQLenPdf::27                      0                       # What read queue length does an incoming req see
system.mem_ctrls.rdQLenPdf::28                      0                       # What read queue length does an incoming req see
system.mem_ctrls.rdQLenPdf::29                      0                       # What read queue length does an incoming req see
system.mem_ctrls.rdQLenPdf::30                      0                       # What read queue length does an incoming req see
system.mem_ctrls.rdQLenPdf::31                      0                       # What read queue length does an incoming req see
system.mem_ctrls.wrQLenPdf::0                       1                       # What write queue length does an incoming req see
system.mem_ctrls.wrQLenPdf::1                       1                       # What write queue length does an incoming req see
system.mem_ctrls.wrQLenPdf::2                       1                       # What write queue length does an incoming req see
system.mem_ctrls.wrQLenPdf::3                       1                       # What write queue length does an incoming req see
system.mem_ctrls.wrQLenPdf::4                       1                       # What write queue length does an incoming req see
system.mem_ctrls.wrQLenPdf::5                       1                       # What write queue length does an incoming req see
system.mem_ctrls.wrQLenPdf::6                       1                       # What write queue length does an incoming req see
system.mem_ctrls.wrQLenPdf::7                       1                       # What write queue length does an incoming req see
system.mem_ctrls.wrQLenPdf::8                       1                       # What write queue length does an incoming req see
system.mem_ctrls.wrQLenPdf::9                       1                       # What write queue length does an incoming req see
system.mem_ctrls.wrQLenPdf::10                      1                       # What write queue length does an incoming req see
system.mem_ctrls.wrQLenPdf::11                      1                       # What write queue length does an incoming req see
system.mem_ctrls.wrQLenPdf::12                      1                       # What write queue length does an incoming req see
system.mem_ctrls.wrQLenPdf::13                      1                       # What write queue length does an incoming req see
system.mem_ctrls.wrQLenPdf::14                      1                       # What write queue length does an incoming req see
system.mem_ctrls.wrQLenPdf::15                   2454                       # What write queue length does an incoming req see
system.mem_ctrls.wrQLenPdf::16                   2559                       # What write queue length does an incoming req see
system.mem_ctrls.wrQLenPdf::17                   6271                       # What write queue length does an incoming req see
system.mem_ctrls.wrQLenPdf::18                   6626                       # What write queue length does an incoming req see
system.mem_ctrls.wrQLenPdf::19                   6671                       # What write queue length does an incoming req see
system.mem_ctrls.wrQLenPdf::20                   6665                       # What write queue length does an incoming req see
system.mem_ctrls.wrQLenPdf::21                   6683                       # What write queue length does an incoming req see
system.mem_ctrls.wrQLenPdf::22                   6700                       # What write queue length does an incoming req see
system.mem_ctrls.wrQLenPdf::23                   6673                       # What write queue length does an incoming req see
system.mem_ctrls.wrQLenPdf::24                   6689                       # What write queue length does an incoming req see
system.mem_ctrls.wrQLenPdf::25                   6657                       # What write queue length does an incoming req see
system.mem_ctrls.wrQLenPdf::26                   6672                       # What write queue length does an incoming req see
system.mem_ctrls.wrQLenPdf::27                   6650                       # What write queue length does an incoming req see
system.mem_ctrls.wrQLenPdf::28                   6645                       # What write queue length does an incoming req see
system.mem_ctrls.wrQLenPdf::29                   6649                       # What write queue length does an incoming req see
system.mem_ctrls.wrQLenPdf::30                   6627                       # What write queue length does an incoming req see
system.mem_ctrls.wrQLenPdf::31                   6655                       # What write queue length does an incoming req see
system.mem_ctrls.wrQLenPdf::32                   6621                       # What write queue length does an incoming req see
system.mem_ctrls.wrQLenPdf::33                      3                       # What write queue length does an incoming req see
system.mem_ctrls.wrQLenPdf::34                      0                       # What write queue length does an incoming req see
system.mem_ctrls.wrQLenPdf::35                      0                       # What write queue length does an incoming req see
system.mem_ctrls.wrQLenPdf::36                      0                       # What write queue length does an incoming req see
system.mem_ctrls.wrQLenPdf::37                      0                       # What write queue length does an incoming req see
system.mem_ctrls.wrQLenPdf::38                      0                       # What write queue length does an incoming req see
system.mem_ctrls.wrQLenPdf::39                      0                       # What write queue length does an incoming req see
system.mem_ctrls.wrQLenPdf::40                      0                       # What write queue length does an incoming req see
system.mem_ctrls.wrQLenPdf::41                      0                       # What write queue length does an incoming req see
system.mem_ctrls.wrQLenPdf::42                      0                       # What write queue length does an incoming req see
system.mem_ctrls.wrQLenPdf::43                      0                       # What write queue length does an incoming req see
system.mem_ctrls.wrQLenPdf::44                      0                       # What write queue length does an incoming req see
system.mem_ctrls.wrQLenPdf::45                      0                       # What write queue length does an incoming req see
system.mem_ctrls.wrQLenPdf::46                      0                       # What write queue length does an incoming req see
system.mem_ctrls.wrQLenPdf::47                      0                       # What write queue length does an incoming req see
system.mem_ctrls.wrQLenPdf::48                      0                       # What write queue length does an incoming req see
system.mem_ctrls.wrQLenPdf::49                      0                       # What write queue length does an incoming req see
system.mem_ctrls.wrQLenPdf::50                      0                       # What write queue length does an incoming req see
system.mem_ctrls.wrQLenPdf::51                      0                       # What write queue length does an incoming req see
system.mem_ctrls.wrQLenPdf::52                      0                       # What write queue length does an incoming req see
system.mem_ctrls.wrQLenPdf::53                      0                       # What write queue length does an incoming req see
system.mem_ctrls.wrQLenPdf::54                      0                       # What write queue length does an incoming req see
system.mem_ctrls.wrQLenPdf::55                      0                       # What write queue length does an incoming req see
system.mem_ctrls.wrQLenPdf::56                      0                       # What write queue length does an incoming req see
system.mem_ctrls.wrQLenPdf::57                      0                       # What write queue length does an incoming req see
system.mem_ctrls.wrQLenPdf::58                      0                       # What write queue length does an incoming req see
system.mem_ctrls.wrQLenPdf::59                      0                       # What write queue length does an incoming req see
system.mem_ctrls.wrQLenPdf::60                      0                       # What write queue length does an incoming req see
system.mem_ctrls.wrQLenPdf::61                      0                       # What write queue length does an incoming req see
system.mem_ctrls.wrQLenPdf::62                      0                       # What write queue length does an incoming req see
system.mem_ctrls.wrQLenPdf::63                      0                       # What write queue length does an incoming req see
system.mem_ctrls.bytesPerActivate::samples       110593                       # Bytes accessed per row activation
system.mem_ctrls.bytesPerActivate::mean    180.688181                       # Bytes accessed per row activation
system.mem_ctrls.bytesPerActivate::gmean   106.941969                       # Bytes accessed per row activation
system.mem_ctrls.bytesPerActivate::stdev   245.061755                       # Bytes accessed per row activation
system.mem_ctrls.bytesPerActivate::0-127        76927     69.56%     69.56% # Bytes accessed per row activation
system.mem_ctrls.bytesPerActivate::128-255        11399     10.31%     79.87% # Bytes accessed per row activation
system.mem_ctrls.bytesPerActivate::256-383         4644      4.20%     84.06% # Bytes accessed per row activation
system.mem_ctrls.bytesPerActivate::384-511         1908      1.73%     85.79% # Bytes accessed per row activation
system.mem_ctrls.bytesPerActivate::512-639         8612      7.79%     93.58% # Bytes accessed per row activation
system.mem_ctrls.bytesPerActivate::640-767          849      0.77%     94.35% # Bytes accessed per row activation
system.mem_ctrls.bytesPerActivate::768-895          461      0.42%     94.76% # Bytes accessed per row activation
system.mem_ctrls.bytesPerActivate::896-1023          431      0.39%     95.15% # Bytes accessed per row activation
system.mem_ctrls.bytesPerActivate::1024-1151         5362      4.85%    100.00% # Bytes accessed per row activation
system.mem_ctrls.bytesPerActivate::total       110593                       # Bytes accessed per row activation
system.mem_ctrls.rdPerTurnAround::samples         6621                       # Reads before turning the bus around for writes
system.mem_ctrls.rdPerTurnAround::mean      30.368222                       # Reads before turning the bus around for writes
system.mem_ctrls.rdPerTurnAround::gmean     23.871167                       # Reads before turning the bus around for writes
system.mem_ctrls.rdPerTurnAround::stdev     52.607571                       # Reads before turning the bus around for writes
system.mem_ctrls.rdPerTurnAround::0-127          6454     97.48%     97.48% # Reads before turning the bus around for writes
system.mem_ctrls.rdPerTurnAround::128-255           38      0.57%     98.05% # Reads before turning the bus around for writes
system.mem_ctrls.rdPerTurnAround::256-383          126      1.90%     99.95% # Reads before turning the bus around for writes
system.mem_ctrls.rdPerTurnAround::512-639            1      0.02%     99.97% # Reads before turning the bus around for writes
system.mem_ctrls.rdPerTurnAround::1664-1791            1      0.02%     99.98% # Reads before turning the bus around for writes
system.mem_ctrls.rdPerTurnAround::2432-2559            1      0.02%    100.00% # Reads before turning the bus around for writes
system.mem_ctrls.rdPerTurnAround::total          6621                       # Reads before turning the bus around for writes
system.mem_ctrls.wrPerTurnAround::samples         6621                       # Writes before turning the bus around for reads
system.mem_ctrls.wrPerTurnAround::mean      16.788703                       # Writes before turning the bus around for reads
[...]
system.cpu.icache.tags.occ_percent::total     0.468896                       # Average percentage of cache occupancy
system.cpu.icache.tags.occ_task_id_blocks::1024          602                       # Occupied blocks per task id
system.cpu.icache.tags.age_task_id_blocks_1024::4          602                       # Occupied blocks per task id
system.cpu.icache.tags.occ_task_id_percent::1024     0.587891                       # Percentage of cache occupancy per task id
system.cpu.icache.tags.tag_accesses          20397787                       # Number of tag accesses
system.cpu.icache.tags.data_accesses         20397787                       # Number of data accesses
system.cpu.dtb.walker.pwrStateResidencyTicks::UNDEFINED 156840382000                       # Cumulative time (in ticks) in various power states
system.cpu.dtb.stage2_mmu.stage2_tlb.walker.pwrStateResidencyTicks::UNDEFINED 156840382000                       # Cumulative time (in ticks) in various power states
system.cpu.dcache.pwrStateResidencyTicks::UNDEFINED 156840382000                       # Cumulative time (in ticks) in various power states
system.cpu.dcache.demand_hits::.cpu.data     51635561                       # number of demand (read+write) hits
system.cpu.dcache.demand_hits::total         51635561                       # number of demand (read+write) hits
system.cpu.dcache.overall_hits::.cpu.data     51636068                       # number of overall hits
system.cpu.dcache.overall_hits::total        51636068                       # number of overall hits
system.cpu.dcache.demand_misses::.cpu.data       514042                       # number of demand (read+write) misses
system.cpu.dcache.demand_misses::total         514042                       # number of demand (read+write) misses
system.cpu.dcache.overall_misses::.cpu.data       521954                       # number of overall misses
system.cpu.dcache.overall_misses::total        521954                       # number of overall misses
system.cpu.dcache.demand_miss_latency::.cpu.data  29732219000                       # number of demand (read+write) miss cycles
system.cpu.dcache.demand_miss_latency::total  29732219000                       # number of demand (read+write) miss cycles
system.cpu.dcache.overall_miss_latency::.cpu.data  29732219000                       # number of overall miss cycles
system.cpu.dcache.overall_miss_latency::total  29732219000                       # number of overall miss cycles
system.cpu.dcache.demand_accesses::.cpu.data     52149603                       # number of demand (read+write) accesses
system.cpu.dcache.demand_accesses::total     52149603                       # number of demand (read+write) accesses
system.cpu.dcache.overall_accesses::.cpu.data     52158022                       # number of overall (read+write) accesses
system.cpu.dcache.overall_accesses::total     52158022                       # number of overall (read+write) accesses
system.cpu.dcache.demand_miss_rate::.cpu.data     0.009857                       # miss rate for demand accesses
system.cpu.dcache.demand_miss_rate::total     0.009857                       # miss rate for demand accesses
system.cpu.dcache.overall_miss_rate::.cpu.data     0.010007                       # miss rate for overall accesses
system.cpu.dcache.overall_miss_rate::total     0.010007                       # miss rate for overall accesses
system.cpu.dcache.demand_avg_miss_latency::.cpu.data 57840.057816                       # average overall miss latency
system.cpu.dcache.demand_avg_miss_latency::total 57840.057816                       # average overall miss latency
system.cpu.dcache.overall_avg_miss_latency::.cpu.data 56963.293700                       # average overall miss latency
system.cpu.dcache.overall_avg_miss_latency::total 56963.293700                       # average overall miss latency
system.cpu.dcache.blocked_cycles::no_mshrs       101022                       # number of cycles access was blocked
system.cpu.dcache.blocked_cycles::no_targets            0                       # number of cycles access was blocked
system.cpu.dcache.blocked::no_mshrs              3429                       # number of cycles access was blocked
system.cpu.dcache.blocked::no_targets               0                       # number of cycles access was blocked
system.cpu.dcache.avg_blocked_cycles::no_mshrs    29.461067                       # average number of cycles each access was blocked
system.cpu.dcache.avg_blocked_cycles::no_targets          nan                       # average number of cycles each access was blocked
system.cpu.dcache.writebacks::.writebacks       393930                       # number of writebacks
system.cpu.dcache.writebacks::total            393930                       # number of writebacks
system.cpu.dcache.demand_mshr_hits::.cpu.data        52517                       # number of demand (read+write) MSHR hits
system.cpu.dcache.demand_mshr_hits::total        52517                       # number of demand (read+write) MSHR hits
system.cpu.dcache.overall_mshr_hits::.cpu.data        52517                       # number of overall MSHR hits
system.cpu.dcache.overall_mshr_hits::total        52517                       # number of overall MSHR hits
system.cpu.dcache.demand_mshr_misses::.cpu.data       461525                       # number of demand (read+write) MSHR misses
system.cpu.dcache.demand_mshr_misses::total       461525                       # number of demand (read+write) MSHR misses
system.cpu.dcache.overall_mshr_misses::.cpu.data       469432                       # number of overall MSHR misses
system.cpu.dcache.overall_mshr_misses::total       469432                       # number of overall MSHR misses
system.cpu.dcache.demand_mshr_miss_latency::.cpu.data  27150197000                       # number of demand (read+write) MSHR miss cycles
system.cpu.dcache.demand_mshr_miss_latency::total  27150197000                       # number of demand (read+write) MSHR miss cycles
system.cpu.dcache.overall_mshr_miss_latency::.cpu.data  27981238999                       # number of overall MSHR miss cycles
system.cpu.dcache.overall_mshr_miss_latency::total  27981238999                       # number of overall MSHR miss cycles
system.cpu.dcache.demand_mshr_miss_rate::.cpu.data     0.008850                       # mshr miss rate for demand accesses
system.cpu.dcache.demand_mshr_miss_rate::total     0.008850                       # mshr miss rate for demand accesses
system.cpu.dcache.overall_mshr_miss_rate::.cpu.data     0.009000                       # mshr miss rate for overall accesses
system.cpu.dcache.overall_mshr_miss_rate::total     0.009000                       # mshr miss rate for overall accesses
system.cpu.dcache.demand_avg_mshr_miss_latency::.cpu.data 58827.142625                       # average overall mshr miss latency
system.cpu.dcache.demand_avg_mshr_miss_latency::total 58827.142625                       # average overall mshr miss latency
system.cpu.dcache.overall_avg_mshr_miss_latency::.cpu.data 59606.586255                       # average overall mshr miss latency
system.cpu.dcache.overall_avg_mshr_miss_latency::total 59606.586255                       # average overall mshr miss latency
system.cpu.dcache.replacements                 467388                       # number of replacements
system.cpu.dcache.ReadReq_hits::.cpu.data     40935535                       # number of ReadReq hits
system.cpu.dcache.ReadReq_hits::total        40935535                       # number of ReadReq hits
system.cpu.dcache.ReadReq_misses::.cpu.data       235889                       # number of ReadReq misses
system.cpu.dcache.ReadReq_misses::total        235889                       # number of ReadReq misses
system.cpu.dcache.ReadReq_miss_latency::.cpu.data  10563289000                       # number of ReadReq miss cycles
system.cpu.dcache.ReadReq_miss_latency::total  10563289000                       # number of ReadReq miss cycles
system.cpu.dcache.ReadReq_accesses::.cpu.data     41171424                       # number of ReadReq accesses(hits+misses)
system.cpu.dcache.ReadReq_accesses::total     41171424                       # number of ReadReq accesses(hits+misses)
system.cpu.dcache.ReadReq_miss_rate::.cpu.data     0.005729                       # miss rate for ReadReq accesses
system.cpu.dcache.ReadReq_miss_rate::total     0.005729                       # miss rate for ReadReq accesses
system.cpu.dcache.ReadReq_avg_miss_latency::.cpu.data 44780.761290                       # average ReadReq miss latency
system.cpu.dcache.ReadReq_avg_miss_latency::total 44780.761290                       # average ReadReq miss latency
system.cpu.dcache.ReadReq_mshr_hits::.cpu.data          498                       # number of ReadReq MSHR hits
system.cpu.dcache.ReadReq_mshr_hits::total          498                       # number of ReadReq MSHR hits
system.cpu.dcache.ReadReq_mshr_misses::.cpu.data       235391                       # number of ReadReq MSHR misses
system.cpu.dcache.ReadReq_mshr_misses::total       235391                       # number of ReadReq MSHR misses
system.cpu.dcache.ReadReq_mshr_miss_latency::.cpu.data  10074973000                       # number of ReadReq MSHR miss cycles
system.cpu.dcache.ReadReq_mshr_miss_latency::total  10074973000                       # number of ReadReq MSHR miss cycles
system.cpu.dcache.ReadReq_mshr_miss_rate::.cpu.data     0.005717                       # mshr miss rate for ReadReq accesses
system.cpu.dcache.ReadReq_mshr_miss_rate::total     0.005717                       # mshr miss rate for ReadReq accesses
system.cpu.dcache.ReadReq_avg_mshr_miss_latency::.cpu.data 42801.011933                       # average ReadReq mshr miss latency
system.cpu.dcache.ReadReq_avg_mshr_miss_latency::total 42801.011933                       # average ReadReq mshr miss latency
system.cpu.dcache.WriteReq_hits::.cpu.data     10700026                       # number of WriteReq hits
system.cpu.dcache.WriteReq_hits::total       10700026                       # number of WriteReq hits
system.cpu.dcache.WriteReq_misses::.cpu.data       278153                       # number of WriteReq misses
system.cpu.dcache.WriteReq_misses::total       278153                       # number of WriteReq misses
system.cpu.dcache.WriteReq_miss_latency::.cpu.data  19168930000                       # number of WriteReq miss cycles
system.cpu.dcache.WriteReq_miss_latency::total  19168930000                       # number of WriteReq miss cycles
system.cpu.dcache.WriteReq_accesses::.cpu.data     10978179                       # number of WriteReq accesses(hits+misses)
system.cpu.dcache.WriteReq_accesses::total     10978179                       # number of WriteReq accesses(hits+misses)
system.cpu.dcache.WriteReq_miss_rate::.cpu.data     0.025337                       # miss rate for WriteReq accesses
system.cpu.dcache.WriteReq_miss_rate::total     0.025337                       # miss rate for WriteReq accesses
system.cpu.dcache.WriteReq_avg_miss_latency::.cpu.data 68915.057540                       # average WriteReq miss latency
system.cpu.dcache.WriteReq_avg_miss_latency::total 68915.057540                       # average WriteReq miss latency
system.cpu.dcache.WriteReq_mshr_hits::.cpu.data        52019                       # number of WriteReq MSHR hits
system.cpu.dcache.WriteReq_mshr_hits::total        52019                       # number of WriteReq MSHR hits
system.cpu.dcache.WriteReq_mshr_misses::.cpu.data       226134                       # number of WriteReq MSHR misses
system.cpu.dcache.WriteReq_mshr_misses::total       226134                       # number of WriteReq MSHR misses
system.cpu.dcache.WriteReq_mshr_miss_latency::.cpu.data  17075224000                       # number of WriteReq MSHR miss cycles
system.cpu.dcache.WriteReq_mshr_miss_latency::total  17075224000                       # number of WriteReq MSHR miss cycles
system.cpu.dcache.WriteReq_mshr_miss_rate::.cpu.data     0.020598                       # mshr miss rate for WriteReq accesses
system.cpu.dcache.WriteReq_mshr_miss_rate::total     0.020598                       # mshr miss rate for WriteReq accesses
system.cpu.dcache.WriteReq_avg_mshr_miss_latency::.cpu.data 75509.317484                       # average WriteReq mshr miss latency
system.cpu.dcache.WriteReq_avg_mshr_miss_latency::total 75509.317484                       # average WriteReq mshr miss latency
system.cpu.dcache.SoftPFReq_hits::.cpu.data          507                       # number of SoftPFReq hits
system.cpu.dcache.SoftPFReq_hits::total           507                       # number of SoftPFReq hits
system.cpu.dcache.SoftPFReq_misses::.cpu.data         7912                       # number of SoftPFReq misses
system.cpu.dcache.SoftPFReq_misses::total         7912                       # number of SoftPFReq misses
system.cpu.dcache.SoftPFReq_accesses::.cpu.data         8419                       # number of SoftPFReq accesses(hits+misses)
system.cpu.dcache.SoftPFReq_accesses::total         8419                       # number of SoftPFReq accesses(hits+misses)
system.cpu.dcache.SoftPFReq_miss_rate::.cpu.data     0.939779                       # miss rate for SoftPFReq accesses
system.cpu.dcache.SoftPFReq_miss_rate::total     0.939779                       # miss rate for SoftPFReq accesses
system.cpu.dcache.SoftPFReq_mshr_misses::.cpu.data         7907                       # number of SoftPFReq MSHR misses
system.cpu.dcache.SoftPFReq_mshr_misses::total         7907                       # number of SoftPFReq MSHR misses
system.cpu.dcache.SoftPFReq_mshr_miss_latency::.cpu.data    831041999                       # number of SoftPFReq MSHR miss cycles
system.cpu.dcache.SoftPFReq_mshr_miss_latency::total    831041999                       # number of SoftPFReq MSHR miss cycles
system.cpu.dcache.SoftPFReq_mshr_miss_rate::.cpu.data     0.939185                       # mshr miss rate for SoftPFReq accesses
system.cpu.dcache.SoftPFReq_mshr_miss_rate::total     0.939185                       # mshr miss rate for SoftPFReq accesses
system.cpu.dcache.SoftPFReq_avg_mshr_miss_latency::.cpu.data 105102.061338                       # average SoftPFReq mshr miss latency
system.cpu.dcache.SoftPFReq_avg_mshr_miss_latency::total 105102.061338                       # average SoftPFReq mshr miss latency
system.cpu.dcache.LoadLockedReq_hits::.cpu.data           34                       # number of LoadLockedReq hits
system.cpu.dcache.LoadLockedReq_hits::total           34                       # number of LoadLockedReq hits
system.cpu.dcache.LoadLockedReq_misses::.cpu.data            4                       # number of LoadLockedReq misses
system.cpu.dcache.LoadLockedReq_misses::total            4                       # number of LoadLockedReq misses
system.cpu.dcache.LoadLockedReq_miss_latency::.cpu.data       311000                       # number of LoadLockedReq miss cycles
system.cpu.dcache.LoadLockedReq_miss_latency::total       311000                       # number of LoadLockedReq miss cycles
system.cpu.dcache.LoadLockedReq_accesses::.cpu.data           38                       # number of LoadLockedReq accesses(hits+misses)
system.cpu.dcache.LoadLockedReq_accesses::total           38                       # number of LoadLockedReq accesses(hits+misses)
system.cpu.dcache.LoadLockedReq_miss_rate::.cpu.data     0.105263                       # miss rate for LoadLockedReq accesses
system.cpu.dcache.LoadLockedReq_miss_rate::total     0.105263                       # miss rate for LoadLockedReq accesses
system.cpu.dcache.LoadLockedReq_avg_miss_latency::.cpu.data        77750                       # average LoadLockedReq miss latency
system.cpu.dcache.LoadLockedReq_avg_miss_latency::total        77750                       # average LoadLockedReq miss latency
system.cpu.dcache.LoadLockedReq_mshr_misses::.cpu.data            4                       # number of LoadLockedReq MSHR misses
system.cpu.dcache.LoadLockedReq_mshr_misses::total            4                       # number of LoadLockedReq MSHR misses
system.cpu.dcache.LoadLockedReq_mshr_miss_latency::.cpu.data       303000                       # number of LoadLockedReq MSHR miss cycles
system.cpu.dcache.LoadLockedReq_mshr_miss_latency::total       303000                       # number of LoadLockedReq MSHR miss cycles
system.cpu.dcache.LoadLockedReq_mshr_miss_rate::.cpu.data     0.105263                       # mshr miss rate for LoadLockedReq accesses
system.cpu.dcache.LoadLockedReq_mshr_miss_rate::total     0.105263                       # mshr miss rate for LoadLockedReq accesses
system.cpu.dcache.LoadLockedReq_avg_mshr_miss_latency::.cpu.data        75750                       # average LoadLockedReq mshr miss latency
system.cpu.dcache.LoadLockedReq_avg_mshr_miss_latency::total        75750                       # average LoadLockedReq mshr miss latency
system.cpu.dcache.StoreCondReq_hits::.cpu.data           38                       # number of StoreCondReq hits
system.cpu.dcache.StoreCondReq_hits::total           38                       # number of StoreCondReq hits
system.cpu.dcache.StoreCondReq_accesses::.cpu.data           38                       # number of StoreCondReq accesses(hits+misses)
system.cpu.dcache.StoreCondReq_accesses::total           38                       # number of StoreCondReq accesses(hits+misses)
system.cpu.dcache.tags.pwrStateResidencyTicks::UNDEFINED 156840382000                       # Cumulative time (in ticks) in various power states
system.cpu.dcache.tags.tagsinuse          2022.538675                       # Cycle average of tags in use
system.cpu.dcache.tags.total_refs            52105576                       # Total number of references to valid blocks.
system.cpu.dcache.tags.sampled_refs            469436                       # Sample count of references to valid blocks.
system.cpu.dcache.tags.avg_refs            110.996123                       # Average number of references to valid blocks.
system.cpu.dcache.tags.warmup_cycle            223000                       # Cycle when the warmup percentage was hit.
system.cpu.dcache.tags.occ_blocks::.cpu.data  2022.538675                       # Average occupied blocks per requestor
system.cpu.dcache.tags.occ_percent::.cpu.data     0.987568                       # Average percentage of cache occupancy
system.cpu.dcache.tags.occ_percent::total     0.987568                       # Average percentage of cache occupancy
system.cpu.dcache.tags.occ_task_id_blocks::1024         2048                       # Occupied blocks per task id
system.cpu.dcache.tags.age_task_id_blocks_1024::0           67                       # Occupied blocks per task id
system.cpu.dcache.tags.age_task_id_blocks_1024::1          533                       # Occupied blocks per task id
system.cpu.dcache.tags.age_task_id_blocks_1024::2         1395                       # Occupied blocks per task id
system.cpu.dcache.tags.age_task_id_blocks_1024::3           47                       # Occupied blocks per task id
system.cpu.dcache.tags.age_task_id_blocks_1024::4            6                       # Occupied blocks per task id
system.cpu.dcache.tags.occ_task_id_percent::1024            1                       # Percentage of cache occupancy per task id
system.cpu.dcache.tags.tag_accesses         834999004                       # Number of tag accesses
system.cpu.dcache.tags.data_accesses        834999004                       # Number of data accesses
system.cpu.itb.walker.pwrStateResidencyTicks::UNDEFINED 156840382000                       # Cumulative time (in ticks) in various power states
system.cpu.itb.stage2_mmu.stage2_tlb.walker.pwrStateResidencyTicks::UNDEFINED 156840382000                       # Cumulative time (in ticks) in various power states

---------- End Simulation Statistics   ----------
